File C:\Users\lotfi\Documents\GitHub\Optimisation_dissipative_KBF\SAP2000 model\5 story\KBF5 (1).$2k was saved on m/d/yy at h:mm:ss
 
TABLE:  "ACTIVE DEGREES OF FREEDOM"
   UX=Yes   UY=No   UZ=Yes   RX=No   RY=Yes   RZ=No
 
TABLE:  "ANALYSIS OPTIONS"
   Solver=Advanced   SolverProc=Auto   Force32Bit=No   StiffCase=None   GeomMod=None   HingeOpt="In Elements"
 
TABLE:  "AUTO COMBINATION OPTION DATA 01 - GENERAL"
   DesignType=Steel   AutoGen=Yes
 
TABLE:  "AUTO COMBINATION OPTION DATA 02 - USER DATA"
   DesignType=Steel   LSType=Strength   LCName=LL
   DesignType=Steel   LSType=Deflection   LCName=LL
 
TABLE:  "AUTO WAVE 3 - WAVE CHARACTERISTICS - GENERAL"
   WaveChar=Default   WaveType="From Theory"   KinFactor=1   SWaterDepth=45   WaveHeight=18   WavePeriod=12   WaveTheory=Linear
 
TABLE:  "CASE - MODAL 1 - GENERAL"
   Case=MODAL   ModeType=Eigen   MaxNumModes=12   MinNumModes=1   EigenShift=0   EigenCutoff=0   EigenTol=1E-09   AutoShift=Yes
 
TABLE:  "CASE - MODAL HISTORY 1 - GENERAL"
   Case=ARTIF1   HistoryType=Transient   OutSteps=3000   StepSize=0.01   ConstDamp=0.05
 
TABLE:  "CASE - MODAL HISTORY 2 - LOAD ASSIGNMENTS"
   Case=ARTIF1   LoadType=Accel   LoadName="Accel U1"   Function=ARTIF1   TransAccSF=10   TimeFactor=1   ArrivalTime=0   CoordSys=GLOBAL   Angle=0
 
TABLE:  "CASE - MODAL HISTORY 6 - NONLINEAR PARAMETERS"
   Case=ARTIF1   PeriodStat=0   DTMax=0   DTMin=0   FConvTol=1E-05   EConvTol=1E-05   ForceItMax=100   ForceItMin=2   ConvFactor=1
 
TABLE:  "CASE - STATIC 1 - LOAD ASSIGNMENTS"
   Case=DEAD   LoadType="Load pattern"   LoadName=DEAD   LoadSF=1
   Case=LL   LoadType="Load pattern"   LoadName=LL   LoadSF=1
 
TABLE:  "CASE - STATIC 2 - NONLINEAR LOAD APPLICATION"
   Case=DEAD   LoadApp="Full Load"   MonitorDOF=U1   MonitorJt=49
 
TABLE:  "CASE - STATIC 4 - NONLINEAR PARAMETERS"
   Case=DEAD   GeoNonLin=None   ResultsSave="Final State"   MaxTotal=200   MaxNull=50   UseEvStep=Yes   EvLumpTol=0.01   MaxEvPerStp=24   UseIter=Yes   MaxIterCS=10   MaxIterNR=40   ItConvTol=0.0001   UseLineSrch=No   TFMaxIter=10 _
        TFTol=0.01   TFAccelFact=1   TFNoStop=No
 
TABLE:  "CONNECTIVITY - FRAME"
   Frame=1   JointI=1   JointJ=2   IsCurved=No   GUID=c64dab31-6d5b-4d48-8a45-4d6fb9d48b64
   Frame=2   JointI=3   JointJ=4   IsCurved=No   GUID=9bf26c9e-8ddf-4eb8-a843-53333b37edf0
   Frame=4   JointI=7   JointJ=8   IsCurved=No   GUID=b00dce72-3caf-4bc3-84b4-095f1df4ae82
   Frame=5   JointI=2   JointJ=4   IsCurved=No   GUID=707284be-ee5b-497f-93ea-1847cf56a199
   Frame=7   JointI=6   JointJ=8   IsCurved=No   GUID=4204c675-6d70-4052-834e-aab32e4adb0e
   Frame=8   JointI=4   JointJ=9   IsCurved=No   GUID=b4e6c5c7-4aab-46ea-aed9-35adf2e300c4
   Frame=9   JointI=9   JointJ=6   IsCurved=No   GUID=9f71eac7-2f02-438a-9097-334d5ea258cb
   Frame=10   JointI=5   JointJ=10   IsCurved=No   GUID=5d964a46-1645-4fe9-b631-9d011b626571
   Frame=11   JointI=10   JointJ=6   IsCurved=No   GUID=29ed857a-98bf-48ad-a9b2-883e39565514
   Frame=12   JointI=11   JointJ=13   IsCurved=No   GUID=70c98aeb-a075-4ab6-a554-6f507b14111c
   Frame=17   JointI=3   JointJ=12   IsCurved=No   GUID=d19471e1-9398-4a67-baf0-0a68c91a0153
   Frame=18   JointI=15   JointJ=14   IsCurved=No   GUID=066beaf3-741e-4b02-b894-34ba24064693
   Frame=19   JointI=2   JointJ=16   IsCurved=No   GUID=3ae86cd0-93dc-4215-bdee-dfc3954c0346
   Frame=20   JointI=4   JointJ=17   IsCurved=No   GUID=900ac100-daa2-48c8-828e-a14258e76dbd
   Frame=21   JointI=8   JointJ=19   IsCurved=No   GUID=d113690a-ba32-4d96-a13f-b41176378796
   Frame=22   JointI=16   JointJ=17   IsCurved=No   GUID=ded71143-8c34-44f1-8a35-1c0e69d25b8c
   Frame=23   JointI=18   JointJ=19   IsCurved=No   GUID=9f5e8f15-5071-440e-bd01-064b49892aae
   Frame=24   JointI=17   JointJ=20   IsCurved=No   GUID=f5285392-dbb1-4497-98b0-bd488d27f3a8
   Frame=25   JointI=20   JointJ=18   IsCurved=No   GUID=fb30875c-203a-4529-9caa-16216cb71c79
   Frame=26   JointI=6   JointJ=21   IsCurved=No   GUID=a8286876-8440-4bfc-8c17-76cbe6fcbb0e
   Frame=27   JointI=21   JointJ=18   IsCurved=No   GUID=a944b9f9-120f-400e-af8f-49c0b1b30d14
   Frame=28   JointI=4   JointJ=22   IsCurved=No   GUID=294843a8-ca10-44a1-96b5-0af39b1cae4f
   Frame=29   JointI=23   JointJ=24   IsCurved=No   GUID=9d1de5dc-8301-470a-86f6-9c338d33eb61
   Frame=30   JointI=26   JointJ=25   IsCurved=No   GUID=95651b73-64fc-476f-9227-07393f4ef8aa
   Frame=31   JointI=16   JointJ=27   IsCurved=No   GUID=c0e8c21a-7564-4c40-b275-000d867f3c1f
   Frame=32   JointI=17   JointJ=28   IsCurved=No   GUID=b144a074-823f-4962-b4e4-493020834e27
   Frame=33   JointI=19   JointJ=30   IsCurved=No   GUID=937ebfd7-46d8-4f04-a599-39da594eb874
   Frame=34   JointI=27   JointJ=28   IsCurved=No   GUID=a9e4e33c-be9d-4ada-aeae-cd790d80a252
   Frame=35   JointI=29   JointJ=30   IsCurved=No   GUID=edc8cf2c-04bf-4661-ad46-e693005754ed
   Frame=36   JointI=28   JointJ=31   IsCurved=No   GUID=a7d01c89-aa92-4df8-ac79-e1959ecd5de1
   Frame=37   JointI=31   JointJ=29   IsCurved=No   GUID=e463cd46-db31-43b7-969e-88fb2756cd18
   Frame=38   JointI=18   JointJ=32   IsCurved=No   GUID=08b45c80-cd12-4824-bacb-b7f4bed1f57b
   Frame=39   JointI=32   JointJ=29   IsCurved=No   GUID=b07ecc3a-fbc4-4015-9382-27d255676b32
   Frame=40   JointI=17   JointJ=33   IsCurved=No   GUID=d8b6df4f-4dc9-44c5-a2da-b3bfac8a9c4f
   Frame=41   JointI=34   JointJ=35   IsCurved=No   GUID=cfaacf40-9be7-4fcf-8b1f-bd86ebec6088
   Frame=42   JointI=37   JointJ=36   IsCurved=No   GUID=9c39a092-3cdb-44de-b56c-390d7fe4c4a6
   Frame=43   JointI=27   JointJ=38   IsCurved=No   GUID=9157efc6-747d-4bd2-a063-13bab1de08e2
   Frame=44   JointI=28   JointJ=39   IsCurved=No   GUID=1a94b899-d75d-40b2-bc03-c539babeb7f9
   Frame=45   JointI=30   JointJ=41   IsCurved=No   GUID=020ec409-24f7-4fdf-951c-e5eb52d741da
   Frame=46   JointI=38   JointJ=39   IsCurved=No   GUID=704fa7b3-154d-4d7a-a931-c81cf955e1d9
   Frame=47   JointI=40   JointJ=41   IsCurved=No   GUID=8dc6f639-891b-44ad-a82a-286d205d4a2a
   Frame=48   JointI=39   JointJ=42   IsCurved=No   GUID=4451b340-2b22-44ee-a6e0-a922ff61003e
   Frame=49   JointI=42   JointJ=40   IsCurved=No   GUID=7f582f7b-850f-410c-9fa2-268819549364
   Frame=50   JointI=29   JointJ=43   IsCurved=No   GUID=a63a987a-a8ea-4a70-8b26-a128f8ddb54c
   Frame=51   JointI=43   JointJ=40   IsCurved=No   GUID=2e9b2e2e-bd46-4824-a766-67bf6f5663fa
   Frame=52   JointI=28   JointJ=44   IsCurved=No   GUID=1e88cd9f-1ce9-4757-8787-626c195bb9e1
   Frame=53   JointI=45   JointJ=46   IsCurved=No   GUID=95077f10-132d-4d8b-aa3e-e5559050e9c0
   Frame=54   JointI=48   JointJ=47   IsCurved=No   GUID=dff70a2b-71d1-41ea-85a2-7c2ce590540f
   Frame=55   JointI=38   JointJ=49   IsCurved=No   GUID=d3466aa3-1625-4f0d-b226-6df5f243abb9
   Frame=56   JointI=39   JointJ=50   IsCurved=No   GUID=ddd9c4e4-b473-422d-93ff-bad507a67149
   Frame=57   JointI=41   JointJ=52   IsCurved=No   GUID=352362a8-61c2-413f-8ce0-2910a1a4ea2b
   Frame=58   JointI=49   JointJ=50   IsCurved=No   GUID=336e20ed-0922-434c-945a-29cc5a92edbb
   Frame=59   JointI=51   JointJ=52   IsCurved=No   GUID=0f955255-992b-4ff9-81b0-da78148dde93
   Frame=60   JointI=50   JointJ=53   IsCurved=No   GUID=71b60d7b-d45f-4b1f-aaa6-a556593ddb72
   Frame=61   JointI=53   JointJ=51   IsCurved=No   GUID=e2c7401a-a099-422a-8522-795a223f4890
   Frame=62   JointI=40   JointJ=54   IsCurved=No   GUID=9f882880-9fa5-404c-971f-2f3f4ea42f4f
   Frame=63   JointI=54   JointJ=51   IsCurved=No   GUID=bb1b33f3-bf97-481e-9ee0-70f8150bf676
   Frame=64   JointI=39   JointJ=55   IsCurved=No   GUID=de242da4-5414-4e74-82a0-62d9318b3f9a
   Frame=65   JointI=56   JointJ=57   IsCurved=No   GUID=fb02e839-0f84-4c15-adfc-79e60491c480
   Frame=66   JointI=59   JointJ=58   IsCurved=No   GUID=966262a3-6a7a-45cd-a7bc-c4a6e8d47b1f
 
TABLE:  "CONNECTIVITY - LINK"
   Link=1   JointI=11   JointJ=9   GUID=7721aa0c-c080-4adf-9739-f01cd434b5e0
   Link=2   JointI=13   JointJ=12   GUID=131badec-20b0-4c91-84d6-eedc6b4d4a98
   Link=3   JointI=12   JointJ=15   GUID=6857a92e-1600-4a87-92a9-7b1d6da6396a
   Link=4   JointI=14   JointJ=10   GUID=0dfd9c73-7dd3-4f17-818f-d755c151c53b
   Link=5   JointI=23   JointJ=20   GUID=c4edc100-4093-4db9-a372-6103c2fb5190
   Link=6   JointI=24   JointJ=22   GUID=c257d9cb-3344-4ba2-92ee-3e8d29db31b0
   Link=7   JointI=22   JointJ=26   GUID=da8b217f-2960-4115-b95c-9145c1ee21f8
   Link=8   JointI=25   JointJ=21   GUID=6cfef3f5-5ab9-4591-bcdf-a8efb6133fef
   Link=9   JointI=34   JointJ=31   GUID=33fa86d0-a903-4c16-a026-74c3ed9e14b3
   Link=10   JointI=35   JointJ=33   GUID=5073aca4-5015-405d-898f-cf81ba1a50bc
   Link=11   JointI=33   JointJ=37   GUID=318f4198-6796-41d6-93ac-f2110608edda
   Link=12   JointI=36   JointJ=32   GUID=03255192-2d7d-458c-8a5e-5c3a4a553b1f
   Link=13   JointI=45   JointJ=42   GUID=ed351b85-48d3-4088-9122-06604879b986
   Link=14   JointI=46   JointJ=44   GUID=86783aec-ef3e-4257-9572-68a4082e762a
   Link=15   JointI=44   JointJ=48   GUID=e40aacb8-fad7-4a57-a137-be85855448cb
   Link=16   JointI=47   JointJ=43   GUID=2b947133-59b1-474a-b632-9bb7b3ef1ce0
   Link=17   JointI=56   JointJ=53   GUID=6756f29f-910c-4e08-85b8-db2fbf193fbd
   Link=18   JointI=57   JointJ=55   GUID=66effc4e-98bb-4979-853c-8fa99911c9e2
   Link=19   JointI=55   JointJ=59   GUID=96288dbe-d152-4f25-89e3-6f3e721754ff
   Link=20   JointI=58   JointJ=54   GUID=16b16d41-150e-4e0e-85be-9e462211e4ce
 
TABLE:  "COORDINATE SYSTEMS"
   Name=GLOBAL   Type=Cartesian   X=0   Y=0   Z=0   AboutZ=0   AboutY=0   AboutX=0
 
TABLE:  "DATABASE DOCUMENTATION"
 
TABLE:  "DATABASE FORMAT TYPES"
   UnitsCurr=Yes   OverrideE=No
 
TABLE:  "FRAME AUTO MESH ASSIGNMENTS"
   Frame=1   AutoMesh=Yes   AtJoints=Yes   AtFrames=No   NumSegments=0   MaxLength=0   MaxDegrees=0
   Frame=2   AutoMesh=Yes   AtJoints=Yes   AtFrames=No   NumSegments=0   MaxLength=0   MaxDegrees=0
   Frame=4   AutoMesh=Yes   AtJoints=Yes   AtFrames=No   NumSegments=0   MaxLength=0   MaxDegrees=0
   Frame=5   AutoMesh=Yes   AtJoints=Yes   AtFrames=No   NumSegments=0   MaxLength=0   MaxDegrees=0
   Frame=7   AutoMesh=Yes   AtJoints=Yes   AtFrames=No   NumSegments=0   MaxLength=0   MaxDegrees=0
   Frame=8   AutoMesh=Yes   AtJoints=Yes   AtFrames=No   NumSegments=0   MaxLength=0   MaxDegrees=0
   Frame=9   AutoMesh=Yes   AtJoints=Yes   AtFrames=No   NumSegments=0   MaxLength=0   MaxDegrees=0
   Frame=10   AutoMesh=Yes   AtJoints=Yes   AtFrames=No   NumSegments=0   MaxLength=0   MaxDegrees=0
   Frame=11   AutoMesh=Yes   AtJoints=Yes   AtFrames=No   NumSegments=0   MaxLength=0   MaxDegrees=0
   Frame=12   AutoMesh=Yes   AtJoints=Yes   AtFrames=No   NumSegments=0   MaxLength=0   MaxDegrees=0
   Frame=17   AutoMesh=Yes   AtJoints=Yes   AtFrames=No   NumSegments=0   MaxLength=0   MaxDegrees=0
   Frame=18   AutoMesh=Yes   AtJoints=Yes   AtFrames=No   NumSegments=0   MaxLength=0   MaxDegrees=0
   Frame=19   AutoMesh=Yes   AtJoints=Yes   AtFrames=No   NumSegments=0   MaxLength=0   MaxDegrees=0
   Frame=20   AutoMesh=Yes   AtJoints=Yes   AtFrames=No   NumSegments=0   MaxLength=0   MaxDegrees=0
   Frame=21   AutoMesh=Yes   AtJoints=Yes   AtFrames=No   NumSegments=0   MaxLength=0   MaxDegrees=0
   Frame=22   AutoMesh=Yes   AtJoints=Yes   AtFrames=No   NumSegments=0   MaxLength=0   MaxDegrees=0
   Frame=23   AutoMesh=Yes   AtJoints=Yes   AtFrames=No   NumSegments=0   MaxLength=0   MaxDegrees=0
   Frame=24   AutoMesh=Yes   AtJoints=Yes   AtFrames=No   NumSegments=0   MaxLength=0   MaxDegrees=0
   Frame=25   AutoMesh=Yes   AtJoints=Yes   AtFrames=No   NumSegments=0   MaxLength=0   MaxDegrees=0
   Frame=26   AutoMesh=Yes   AtJoints=Yes   AtFrames=No   NumSegments=0   MaxLength=0   MaxDegrees=0
# ... 40 like lines cut
 
TABLE:  "FRAME DESIGN PROCEDURES"
   Frame=1   DesignProc="From Material"
   Frame=2   DesignProc="From Material"
   Frame=4   DesignProc="From Material"
   Frame=5   DesignProc="From Material"
   Frame=7   DesignProc="From Material"
   Frame=8   DesignProc="From Material"
   Frame=9   DesignProc="From Material"
   Frame=10   DesignProc="From Material"
   Frame=11   DesignProc="From Material"
   Frame=12   DesignProc="From Material"
   Frame=17   DesignProc="From Material"
   Frame=18   DesignProc="From Material"
   Frame=19   DesignProc="From Material"
   Frame=20   DesignProc="From Material"
   Frame=21   DesignProc="From Material"
   Frame=22   DesignProc="From Material"
   Frame=23   DesignProc="From Material"
   Frame=24   DesignProc="From Material"
   Frame=25   DesignProc="From Material"
   Frame=26   DesignProc="From Material"
# ... 40 like lines cut
 
TABLE:  "FRAME LOADS - DISTRIBUTED"
   Frame=5   LoadPat=LL   CoordSys=GLOBAL   Type=Force   Dir=Gravity   DistType=RelDist   RelDistA=0   RelDistB=1   AbsDistA=0   AbsDistB=5.5   FOverLA=15   FOverLB=15   GUID=f7bbed9f-dc91-424c-8821-193b0c440144
   Frame=5   LoadPat=DEAD   CoordSys=GLOBAL   Type=Force   Dir=Gravity   DistType=RelDist   RelDistA=0   RelDistB=1   AbsDistA=0   AbsDistB=5.5   FOverLA=20   FOverLB=20   GUID=2876303b-8624-41f0-b7a0-e008a7f8217a
   Frame=7   LoadPat=LL   CoordSys=GLOBAL   Type=Force   Dir=Gravity   DistType=RelDist   RelDistA=0   RelDistB=1   AbsDistA=0   AbsDistB=5.5   FOverLA=15   FOverLB=15   GUID=e8eb8433-d52f-4a80-aeea-223b8d4cd501
   Frame=7   LoadPat=DEAD   CoordSys=GLOBAL   Type=Force   Dir=Gravity   DistType=RelDist   RelDistA=0   RelDistB=1   AbsDistA=0   AbsDistB=5.5   FOverLA=20   FOverLB=20   GUID=c57b64d7-2e63-477c-b318-0c668a67ba92
   Frame=8   LoadPat=LL   CoordSys=GLOBAL   Type=Force   Dir=Gravity   DistType=RelDist   RelDistA=0   RelDistB=1   AbsDistA=0   AbsDistB=4.15   FOverLA=15   FOverLB=15   GUID=ba05a5e3-d8c0-42af-a4f4-513d55403dc2
   Frame=8   LoadPat=DEAD   CoordSys=GLOBAL   Type=Force   Dir=Gravity   DistType=RelDist   RelDistA=0   RelDistB=1   AbsDistA=0   AbsDistB=4.15   FOverLA=20   FOverLB=20   GUID=d173c3a2-69b4-4e0d-8328-2eb130325546
   Frame=9   LoadPat=LL   CoordSys=GLOBAL   Type=Force   Dir=Gravity   DistType=RelDist   RelDistA=0   RelDistB=1   AbsDistA=0   AbsDistB=1.35   FOverLA=15   FOverLB=15   GUID=15f168e2-b1f2-40de-af0e-e80f59bb2055
   Frame=9   LoadPat=DEAD   CoordSys=GLOBAL   Type=Force   Dir=Gravity   DistType=RelDist   RelDistA=0   RelDistB=1   AbsDistA=0   AbsDistB=1.35   FOverLA=20   FOverLB=20   GUID=883660d8-afcf-4e97-b2e2-2bfd04200cce
   Frame=22   LoadPat=LL   CoordSys=GLOBAL   Type=Force   Dir=Gravity   DistType=RelDist   RelDistA=0   RelDistB=1   AbsDistA=0   AbsDistB=5.5   FOverLA=15   FOverLB=15   GUID=f7bbed9f-dc91-424c-8821-193b0c440144
   Frame=22   LoadPat=DEAD   CoordSys=GLOBAL   Type=Force   Dir=Gravity   DistType=RelDist   RelDistA=0   RelDistB=1   AbsDistA=0   AbsDistB=5.5   FOverLA=20   FOverLB=20   GUID=1bc49940-9f1b-4219-9ed0-b46a9a695a2a
   Frame=23   LoadPat=LL   CoordSys=GLOBAL   Type=Force   Dir=Gravity   DistType=RelDist   RelDistA=0   RelDistB=1   AbsDistA=0   AbsDistB=5.5   FOverLA=15   FOverLB=15   GUID=e8eb8433-d52f-4a80-aeea-223b8d4cd501
   Frame=23   LoadPat=DEAD   CoordSys=GLOBAL   Type=Force   Dir=Gravity   DistType=RelDist   RelDistA=0   RelDistB=1   AbsDistA=0   AbsDistB=5.5   FOverLA=20   FOverLB=20   GUID=f9e94453-3d9f-4b62-9cc8-761edc5a7cf9
   Frame=24   LoadPat=LL   CoordSys=GLOBAL   Type=Force   Dir=Gravity   DistType=RelDist   RelDistA=0   RelDistB=1   AbsDistA=0   AbsDistB=4.15   FOverLA=15   FOverLB=15   GUID=ba05a5e3-d8c0-42af-a4f4-513d55403dc2
   Frame=24   LoadPat=DEAD   CoordSys=GLOBAL   Type=Force   Dir=Gravity   DistType=RelDist   RelDistA=0   RelDistB=1   AbsDistA=0   AbsDistB=4.15   FOverLA=20   FOverLB=20   GUID=7ca7da77-9594-4267-a87a-7756cdfee110
   Frame=25   LoadPat=LL   CoordSys=GLOBAL   Type=Force   Dir=Gravity   DistType=RelDist   RelDistA=0   RelDistB=1   AbsDistA=0   AbsDistB=1.35   FOverLA=15   FOverLB=15   GUID=15f168e2-b1f2-40de-af0e-e80f59bb2055
   Frame=25   LoadPat=DEAD   CoordSys=GLOBAL   Type=Force   Dir=Gravity   DistType=RelDist   RelDistA=0   RelDistB=1   AbsDistA=0   AbsDistB=1.35   FOverLA=20   FOverLB=20   GUID=c83cb493-1fe0-467a-8dc9-a74c77571eb8
   Frame=34   LoadPat=LL   CoordSys=GLOBAL   Type=Force   Dir=Gravity   DistType=RelDist   RelDistA=0   RelDistB=1   AbsDistA=0   AbsDistB=5.5   FOverLA=15   FOverLB=15   GUID=f7bbed9f-dc91-424c-8821-193b0c440144
   Frame=34   LoadPat=DEAD   CoordSys=GLOBAL   Type=Force   Dir=Gravity   DistType=RelDist   RelDistA=0   RelDistB=1   AbsDistA=0   AbsDistB=5.5   FOverLA=20   FOverLB=20   GUID=13cb055c-f30d-4928-aa48-fedcfb0d0b29
   Frame=35   LoadPat=LL   CoordSys=GLOBAL   Type=Force   Dir=Gravity   DistType=RelDist   RelDistA=0   RelDistB=1   AbsDistA=0   AbsDistB=5.5   FOverLA=15   FOverLB=15   GUID=e8eb8433-d52f-4a80-aeea-223b8d4cd501
   Frame=35   LoadPat=DEAD   CoordSys=GLOBAL   Type=Force   Dir=Gravity   DistType=RelDist   RelDistA=0   RelDistB=1   AbsDistA=0   AbsDistB=5.5   FOverLA=20   FOverLB=20   GUID=52db3a5e-bacd-4ca8-baae-fcc49da09d69
   Frame=36   LoadPat=LL   CoordSys=GLOBAL   Type=Force   Dir=Gravity   DistType=RelDist   RelDistA=0   RelDistB=1   AbsDistA=0   AbsDistB=4.15   FOverLA=15   FOverLB=15   GUID=ba05a5e3-d8c0-42af-a4f4-513d55403dc2
   Frame=36   LoadPat=DEAD   CoordSys=GLOBAL   Type=Force   Dir=Gravity   DistType=RelDist   RelDistA=0   RelDistB=1   AbsDistA=0   AbsDistB=4.15   FOverLA=20   FOverLB=20   GUID=c7eaede5-6f96-433a-9b29-deaee0781212
   Frame=37   LoadPat=LL   CoordSys=GLOBAL   Type=Force   Dir=Gravity   DistType=RelDist   RelDistA=0   RelDistB=1   AbsDistA=0   AbsDistB=1.35   FOverLA=15   FOverLB=15   GUID=15f168e2-b1f2-40de-af0e-e80f59bb2055
   Frame=37   LoadPat=DEAD   CoordSys=GLOBAL   Type=Force   Dir=Gravity   DistType=RelDist   RelDistA=0   RelDistB=1   AbsDistA=0   AbsDistB=1.35   FOverLA=20   FOverLB=20   GUID=34fbbb9c-a184-45eb-9d3b-72bb1ef5d9d1
   Frame=46   LoadPat=LL   CoordSys=GLOBAL   Type=Force   Dir=Gravity   DistType=RelDist   RelDistA=0   RelDistB=1   AbsDistA=0   AbsDistB=5.5   FOverLA=15   FOverLB=15   GUID=f7bbed9f-dc91-424c-8821-193b0c440144
   Frame=46   LoadPat=DEAD   CoordSys=GLOBAL   Type=Force   Dir=Gravity   DistType=RelDist   RelDistA=0   RelDistB=1   AbsDistA=0   AbsDistB=5.5   FOverLA=20   FOverLB=20   GUID=6f2b2f78-2b10-47e8-b8d4-8a312bb8f9e2
   Frame=47   LoadPat=LL   CoordSys=GLOBAL   Type=Force   Dir=Gravity   DistType=RelDist   RelDistA=0   RelDistB=1   AbsDistA=0   AbsDistB=5.5   FOverLA=15   FOverLB=15   GUID=e8eb8433-d52f-4a80-aeea-223b8d4cd501
   Frame=47   LoadPat=DEAD   CoordSys=GLOBAL   Type=Force   Dir=Gravity   DistType=RelDist   RelDistA=0   RelDistB=1   AbsDistA=0   AbsDistB=5.5   FOverLA=20   FOverLB=20   GUID=a914a574-ab3a-4253-a3bf-8e475b5de6e7
   Frame=48   LoadPat=LL   CoordSys=GLOBAL   Type=Force   Dir=Gravity   DistType=RelDist   RelDistA=0   RelDistB=1   AbsDistA=0   AbsDistB=4.15   FOverLA=15   FOverLB=15   GUID=ba05a5e3-d8c0-42af-a4f4-513d55403dc2
   Frame=48   LoadPat=DEAD   CoordSys=GLOBAL   Type=Force   Dir=Gravity   DistType=RelDist   RelDistA=0   RelDistB=1   AbsDistA=0   AbsDistB=4.15   FOverLA=20   FOverLB=20   GUID=f877f41d-702c-482f-a587-b2ab80cb94c8
   Frame=49   LoadPat=LL   CoordSys=GLOBAL   Type=Force   Dir=Gravity   DistType=RelDist   RelDistA=0   RelDistB=1   AbsDistA=0   AbsDistB=1.35   FOverLA=15   FOverLB=15   GUID=15f168e2-b1f2-40de-af0e-e80f59bb2055
   Frame=49   LoadPat=DEAD   CoordSys=GLOBAL   Type=Force   Dir=Gravity   DistType=RelDist   RelDistA=0   RelDistB=1   AbsDistA=0   AbsDistB=1.35   FOverLA=20   FOverLB=20   GUID=fcd2e430-2005-40c1-a618-1a735486bd45
   Frame=58   LoadPat=LL   CoordSys=GLOBAL   Type=Force   Dir=Gravity   DistType=RelDist   RelDistA=0   RelDistB=1   AbsDistA=0   AbsDistB=5.5   FOverLA=15   FOverLB=15   GUID=f7bbed9f-dc91-424c-8821-193b0c440144
   Frame=58   LoadPat=DEAD   CoordSys=GLOBAL   Type=Force   Dir=Gravity   DistType=RelDist   RelDistA=0   RelDistB=1   AbsDistA=0   AbsDistB=5.5   FOverLA=20   FOverLB=20   GUID=b6a9f6d9-a37f-4a3d-b296-df79acb3b2a3
   Frame=59   LoadPat=LL   CoordSys=GLOBAL   Type=Force   Dir=Gravity   DistType=RelDist   RelDistA=0   RelDistB=1   AbsDistA=0   AbsDistB=5.5   FOverLA=15   FOverLB=15   GUID=e8eb8433-d52f-4a80-aeea-223b8d4cd501
   Frame=59   LoadPat=DEAD   CoordSys=GLOBAL   Type=Force   Dir=Gravity   DistType=RelDist   RelDistA=0   RelDistB=1   AbsDistA=0   AbsDistB=5.5   FOverLA=20   FOverLB=20   GUID=25c5297a-603c-4126-81f9-c49861fa631e
   Frame=60   LoadPat=LL   CoordSys=GLOBAL   Type=Force   Dir=Gravity   DistType=RelDist   RelDistA=0   RelDistB=1   AbsDistA=0   AbsDistB=4.15   FOverLA=15   FOverLB=15   GUID=ba05a5e3-d8c0-42af-a4f4-513d55403dc2
   Frame=60   LoadPat=DEAD   CoordSys=GLOBAL   Type=Force   Dir=Gravity   DistType=RelDist   RelDistA=0   RelDistB=1   AbsDistA=0   AbsDistB=4.15   FOverLA=20   FOverLB=20   GUID=62a7fcf6-033f-447f-a7dc-9adfa406a730
   Frame=61   LoadPat=LL   CoordSys=GLOBAL   Type=Force   Dir=Gravity   DistType=RelDist   RelDistA=0   RelDistB=1   AbsDistA=0   AbsDistB=1.35   FOverLA=15   FOverLB=15   GUID=15f168e2-b1f2-40de-af0e-e80f59bb2055
   Frame=61   LoadPat=DEAD   CoordSys=GLOBAL   Type=Force   Dir=Gravity   DistType=RelDist   RelDistA=0   RelDistB=1   AbsDistA=0   AbsDistB=1.35   FOverLA=20   FOverLB=20   GUID=6ebfab1f-98f1-452a-b223-9140cb5c15c7
 
TABLE:  "FRAME LOAD TRANSFER OPTIONS"
   Frame=1   Transfer=Yes
   Frame=2   Transfer=Yes
   Frame=4   Transfer=Yes
   Frame=5   Transfer=Yes
   Frame=7   Transfer=Yes
   Frame=8   Transfer=Yes
   Frame=9   Transfer=Yes
   Frame=10   Transfer=Yes
   Frame=11   Transfer=Yes
   Frame=12   Transfer=Yes
   Frame=17   Transfer=Yes
   Frame=18   Transfer=Yes
   Frame=19   Transfer=Yes
   Frame=20   Transfer=Yes
   Frame=21   Transfer=Yes
   Frame=22   Transfer=Yes
   Frame=23   Transfer=Yes
   Frame=24   Transfer=Yes
   Frame=25   Transfer=Yes
   Frame=26   Transfer=Yes
# ... 40 like lines cut
 
TABLE:  "FRAME OUTPUT STATION ASSIGNMENTS"
   Frame=1   StationType=MinNumSta   MinNumSta=3   AddAtElmInt=Yes   AddAtPtLoad=Yes
   Frame=2   StationType=MinNumSta   MinNumSta=3   AddAtElmInt=Yes   AddAtPtLoad=Yes
   Frame=4   StationType=MinNumSta   MinNumSta=3   AddAtElmInt=Yes   AddAtPtLoad=Yes
   Frame=5   StationType=MaxStaSpcg   MaxStaSpcg=0.5   AddAtElmInt=Yes   AddAtPtLoad=Yes
   Frame=7   StationType=MaxStaSpcg   MaxStaSpcg=0.5   AddAtElmInt=Yes   AddAtPtLoad=Yes
   Frame=8   StationType=MaxStaSpcg   MaxStaSpcg=0.5   AddAtElmInt=Yes   AddAtPtLoad=Yes
   Frame=9   StationType=MaxStaSpcg   MaxStaSpcg=0.5   AddAtElmInt=Yes   AddAtPtLoad=Yes
   Frame=10   StationType=MinNumSta   MinNumSta=3   AddAtElmInt=Yes   AddAtPtLoad=Yes
   Frame=11   StationType=MinNumSta   MinNumSta=3   AddAtElmInt=Yes   AddAtPtLoad=Yes
   Frame=12   StationType=MinNumSta   MinNumSta=3   AddAtElmInt=Yes   AddAtPtLoad=Yes
   Frame=17   StationType=MinNumSta   MinNumSta=3   AddAtElmInt=Yes   AddAtPtLoad=Yes
   Frame=18   StationType=MinNumSta   MinNumSta=3   AddAtElmInt=Yes   AddAtPtLoad=Yes
   Frame=19   StationType=MinNumSta   MinNumSta=3   AddAtElmInt=Yes   AddAtPtLoad=Yes
   Frame=20   StationType=MinNumSta   MinNumSta=3   AddAtElmInt=Yes   AddAtPtLoad=Yes
   Frame=21   StationType=MinNumSta   MinNumSta=3   AddAtElmInt=Yes   AddAtPtLoad=Yes
   Frame=22   StationType=MaxStaSpcg   MaxStaSpcg=0.5   AddAtElmInt=Yes   AddAtPtLoad=Yes
   Frame=23   StationType=MaxStaSpcg   MaxStaSpcg=0.5   AddAtElmInt=Yes   AddAtPtLoad=Yes
   Frame=24   StationType=MaxStaSpcg   MaxStaSpcg=0.5   AddAtElmInt=Yes   AddAtPtLoad=Yes
   Frame=25   StationType=MaxStaSpcg   MaxStaSpcg=0.5   AddAtElmInt=Yes   AddAtPtLoad=Yes
   Frame=26   StationType=MinNumSta   MinNumSta=3   AddAtElmInt=Yes   AddAtPtLoad=Yes
   Frame=27   StationType=MinNumSta   MinNumSta=3   AddAtElmInt=Yes   AddAtPtLoad=Yes
   Frame=28   StationType=MinNumSta   MinNumSta=3   AddAtElmInt=Yes   AddAtPtLoad=Yes
   Frame=29   StationType=MinNumSta   MinNumSta=3   AddAtElmInt=Yes   AddAtPtLoad=Yes
   Frame=30   StationType=MinNumSta   MinNumSta=3   AddAtElmInt=Yes   AddAtPtLoad=Yes
   Frame=31   StationType=MinNumSta   MinNumSta=3   AddAtElmInt=Yes   AddAtPtLoad=Yes
   Frame=32   StationType=MinNumSta   MinNumSta=3   AddAtElmInt=Yes   AddAtPtLoad=Yes
   Frame=33   StationType=MinNumSta   MinNumSta=3   AddAtElmInt=Yes   AddAtPtLoad=Yes
   Frame=34   StationType=MaxStaSpcg   MaxStaSpcg=0.5   AddAtElmInt=Yes   AddAtPtLoad=Yes
   Frame=35   StationType=MaxStaSpcg   MaxStaSpcg=0.5   AddAtElmInt=Yes   AddAtPtLoad=Yes
   Frame=36   StationType=MaxStaSpcg   MaxStaSpcg=0.5   AddAtElmInt=Yes   AddAtPtLoad=Yes
   Frame=37   StationType=MaxStaSpcg   MaxStaSpcg=0.5   AddAtElmInt=Yes   AddAtPtLoad=Yes
   Frame=38   StationType=MinNumSta   MinNumSta=3   AddAtElmInt=Yes   AddAtPtLoad=Yes
   Frame=39   StationType=MinNumSta   MinNumSta=3   AddAtElmInt=Yes   AddAtPtLoad=Yes
   Frame=40   StationType=MinNumSta   MinNumSta=3   AddAtElmInt=Yes   AddAtPtLoad=Yes
   Frame=41   StationType=MinNumSta   MinNumSta=3   AddAtElmInt=Yes   AddAtPtLoad=Yes
   Frame=42   StationType=MinNumSta   MinNumSta=3   AddAtElmInt=Yes   AddAtPtLoad=Yes
   Frame=43   StationType=MinNumSta   MinNumSta=3   AddAtElmInt=Yes   AddAtPtLoad=Yes
   Frame=44   StationType=MinNumSta   MinNumSta=3   AddAtElmInt=Yes   AddAtPtLoad=Yes
   Frame=45   StationType=MinNumSta   MinNumSta=3   AddAtElmInt=Yes   AddAtPtLoad=Yes
   Frame=46   StationType=MaxStaSpcg   MaxStaSpcg=0.5   AddAtElmInt=Yes   AddAtPtLoad=Yes
   Frame=47   StationType=MaxStaSpcg   MaxStaSpcg=0.5   AddAtElmInt=Yes   AddAtPtLoad=Yes
   Frame=48   StationType=MaxStaSpcg   MaxStaSpcg=0.5   AddAtElmInt=Yes   AddAtPtLoad=Yes
   Frame=49   StationType=MaxStaSpcg   MaxStaSpcg=0.5   AddAtElmInt=Yes   AddAtPtLoad=Yes
   Frame=50   StationType=MinNumSta   MinNumSta=3   AddAtElmInt=Yes   AddAtPtLoad=Yes
   Frame=51   StationType=MinNumSta   MinNumSta=3   AddAtElmInt=Yes   AddAtPtLoad=Yes
   Frame=52   StationType=MinNumSta   MinNumSta=3   AddAtElmInt=Yes   AddAtPtLoad=Yes
   Frame=53   StationType=MinNumSta   MinNumSta=3   AddAtElmInt=Yes   AddAtPtLoad=Yes
   Frame=54   StationType=MinNumSta   MinNumSta=3   AddAtElmInt=Yes   AddAtPtLoad=Yes
   Frame=55   StationType=MinNumSta   MinNumSta=3   AddAtElmInt=Yes   AddAtPtLoad=Yes
   Frame=56   StationType=MinNumSta   MinNumSta=3   AddAtElmInt=Yes   AddAtPtLoad=Yes
   Frame=57   StationType=MinNumSta   MinNumSta=3   AddAtElmInt=Yes   AddAtPtLoad=Yes
   Frame=58   StationType=MaxStaSpcg   MaxStaSpcg=0.5   AddAtElmInt=Yes   AddAtPtLoad=Yes
   Frame=59   StationType=MaxStaSpcg   MaxStaSpcg=0.5   AddAtElmInt=Yes   AddAtPtLoad=Yes
   Frame=60   StationType=MaxStaSpcg   MaxStaSpcg=0.5   AddAtElmInt=Yes   AddAtPtLoad=Yes
   Frame=61   StationType=MaxStaSpcg   MaxStaSpcg=0.5   AddAtElmInt=Yes   AddAtPtLoad=Yes
   Frame=62   StationType=MinNumSta   MinNumSta=3   AddAtElmInt=Yes   AddAtPtLoad=Yes
   Frame=63   StationType=MinNumSta   MinNumSta=3   AddAtElmInt=Yes   AddAtPtLoad=Yes
   Frame=64   StationType=MinNumSta   MinNumSta=3   AddAtElmInt=Yes   AddAtPtLoad=Yes
   Frame=65   StationType=MinNumSta   MinNumSta=3   AddAtElmInt=Yes   AddAtPtLoad=Yes
   Frame=66   StationType=MinNumSta   MinNumSta=3   AddAtElmInt=Yes   AddAtPtLoad=Yes
 
TABLE:  "FRAME PROPERTY MODIFIERS"
   Frame=1   AMod=1   AS2Mod=1   AS3Mod=1   JMod=1   I22Mod=1   I33Mod=1   MassMod=1   WeightMod=1
   Frame=2   AMod=1   AS2Mod=1   AS3Mod=1   JMod=1   I22Mod=1   I33Mod=1   MassMod=1   WeightMod=1
   Frame=4   AMod=1   AS2Mod=1   AS3Mod=1   JMod=1   I22Mod=1   I33Mod=1   MassMod=1   WeightMod=1
   Frame=5   AMod=1   AS2Mod=1   AS3Mod=1   JMod=1   I22Mod=1   I33Mod=1   MassMod=1   WeightMod=1
   Frame=7   AMod=1   AS2Mod=1   AS3Mod=1   JMod=1   I22Mod=1   I33Mod=1   MassMod=1   WeightMod=1
   Frame=8   AMod=1   AS2Mod=1   AS3Mod=1   JMod=1   I22Mod=1   I33Mod=1   MassMod=1   WeightMod=1
   Frame=9   AMod=1   AS2Mod=1   AS3Mod=1   JMod=1   I22Mod=1   I33Mod=1   MassMod=1   WeightMod=1
   Frame=10   AMod=1   AS2Mod=1   AS3Mod=1   JMod=1   I22Mod=1   I33Mod=1   MassMod=1   WeightMod=1
   Frame=11   AMod=1   AS2Mod=1   AS3Mod=1   JMod=1   I22Mod=1   I33Mod=1   MassMod=1   WeightMod=1
   Frame=12   AMod=1   AS2Mod=1   AS3Mod=1   JMod=1   I22Mod=1   I33Mod=1   MassMod=1   WeightMod=1
   Frame=17   AMod=1   AS2Mod=1   AS3Mod=1   JMod=1   I22Mod=1   I33Mod=1   MassMod=1   WeightMod=1
   Frame=18   AMod=1   AS2Mod=1   AS3Mod=1   JMod=1   I22Mod=1   I33Mod=1   MassMod=1   WeightMod=1
   Frame=19   AMod=1   AS2Mod=1   AS3Mod=1   JMod=1   I22Mod=1   I33Mod=1   MassMod=1   WeightMod=1
   Frame=20   AMod=1   AS2Mod=1   AS3Mod=1   JMod=1   I22Mod=1   I33Mod=1   MassMod=1   WeightMod=1
   Frame=21   AMod=1   AS2Mod=1   AS3Mod=1   JMod=1   I22Mod=1   I33Mod=1   MassMod=1   WeightMod=1
   Frame=22   AMod=1   AS2Mod=1   AS3Mod=1   JMod=1   I22Mod=1   I33Mod=1   MassMod=1   WeightMod=1
   Frame=23   AMod=1   AS2Mod=1   AS3Mod=1   JMod=1   I22Mod=1   I33Mod=1   MassMod=1   WeightMod=1
   Frame=24   AMod=1   AS2Mod=1   AS3Mod=1   JMod=1   I22Mod=1   I33Mod=1   MassMod=1   WeightMod=1
   Frame=25   AMod=1   AS2Mod=1   AS3Mod=1   JMod=1   I22Mod=1   I33Mod=1   MassMod=1   WeightMod=1
   Frame=26   AMod=1   AS2Mod=1   AS3Mod=1   JMod=1   I22Mod=1   I33Mod=1   MassMod=1   WeightMod=1
# ... 40 like lines cut
 
TABLE:  "FRAME RELEASE ASSIGNMENTS 1 - GENERAL"
   Frame=17   PI=No   V2I=No   V3I=No   TI=No   M2I=Yes   M3I=Yes   PJ=No   V2J=No   V3J=No   TJ=No   M2J=Yes   M3J=Yes
   Frame=28   PI=No   V2I=No   V3I=No   TI=No   M2I=Yes   M3I=Yes   PJ=No   V2J=No   V3J=No   TJ=No   M2J=Yes   M3J=Yes
   Frame=40   PI=No   V2I=No   V3I=No   TI=No   M2I=Yes   M3I=Yes   PJ=No   V2J=No   V3J=No   TJ=No   M2J=Yes   M3J=Yes
   Frame=52   PI=No   V2I=No   V3I=No   TI=No   M2I=Yes   M3I=Yes   PJ=No   V2J=No   V3J=No   TJ=No   M2J=Yes   M3J=Yes
   Frame=64   PI=No   V2I=No   V3I=No   TI=No   M2I=Yes   M3I=Yes   PJ=No   V2J=No   V3J=No   TJ=No   M2J=Yes   M3J=Yes
 
TABLE:  "FRAME SECTION ASSIGNMENTS"
   Frame=1   AutoSelect=N.A.   AnalSect=HE400A   MatProp=Default
   Frame=2   AutoSelect=N.A.   AnalSect=HE400A   MatProp=Default
   Frame=4   AutoSelect=N.A.   AnalSect=HE400A   MatProp=Default
   Frame=5   AutoSelect=N.A.   AnalSect=IPE360   MatProp=Default
   Frame=7   AutoSelect=N.A.   AnalSect=IPE360   MatProp=Default
   Frame=8   AutoSelect=N.A.   AnalSect=IPE360   MatProp=Default
   Frame=9   AutoSelect=N.A.   AnalSect=IPE360   MatProp=Default
   Frame=10   AutoSelect=N.A.   AnalSect=HE400A   MatProp=Default
   Frame=11   AutoSelect=N.A.   AnalSect=HE400A   MatProp=Default
   Frame=12   AutoSelect=N.A.   AnalSect=IPE160   MatProp=Default
   Frame=17   AutoSelect=N.A.   AnalSect=2UPN80/10/   MatProp=Default
   Frame=18   AutoSelect=N.A.   AnalSect=IPE160   MatProp=Default
   Frame=19   AutoSelect=N.A.   AnalSect=HE400A   MatProp=Default
   Frame=20   AutoSelect=N.A.   AnalSect=HE400A   MatProp=Default
   Frame=21   AutoSelect=N.A.   AnalSect=HE400A   MatProp=Default
   Frame=22   AutoSelect=N.A.   AnalSect=IPE360   MatProp=Default
   Frame=23   AutoSelect=N.A.   AnalSect=IPE360   MatProp=Default
   Frame=24   AutoSelect=N.A.   AnalSect=IPE360   MatProp=Default
   Frame=25   AutoSelect=N.A.   AnalSect=IPE360   MatProp=Default
   Frame=26   AutoSelect=N.A.   AnalSect=HE400A   MatProp=Default
   Frame=27   AutoSelect=N.A.   AnalSect=HE400A   MatProp=Default
   Frame=28   AutoSelect=N.A.   AnalSect=2UPN80/10/   MatProp=Default
   Frame=29   AutoSelect=N.A.   AnalSect=IPE160   MatProp=Default
   Frame=30   AutoSelect=N.A.   AnalSect=IPE160   MatProp=Default
   Frame=31   AutoSelect=N.A.   AnalSect=HE400A   MatProp=Default
   Frame=32   AutoSelect=N.A.   AnalSect=HE400A   MatProp=Default
   Frame=33   AutoSelect=N.A.   AnalSect=HE400A   MatProp=Default
   Frame=34   AutoSelect=N.A.   AnalSect=IPE360   MatProp=Default
   Frame=35   AutoSelect=N.A.   AnalSect=IPE360   MatProp=Default
   Frame=36   AutoSelect=N.A.   AnalSect=IPE360   MatProp=Default
   Frame=37   AutoSelect=N.A.   AnalSect=IPE360   MatProp=Default
   Frame=38   AutoSelect=N.A.   AnalSect=HE400A   MatProp=Default
   Frame=39   AutoSelect=N.A.   AnalSect=HE400A   MatProp=Default
   Frame=40   AutoSelect=N.A.   AnalSect=2UPN80/10/   MatProp=Default
   Frame=41   AutoSelect=N.A.   AnalSect=IPE160   MatProp=Default
   Frame=42   AutoSelect=N.A.   AnalSect=IPE160   MatProp=Default
   Frame=43   AutoSelect=N.A.   AnalSect=HE400A   MatProp=Default
   Frame=44   AutoSelect=N.A.   AnalSect=HE400A   MatProp=Default
   Frame=45   AutoSelect=N.A.   AnalSect=HE400A   MatProp=Default
   Frame=46   AutoSelect=N.A.   AnalSect=IPE360   MatProp=Default
   Frame=47   AutoSelect=N.A.   AnalSect=IPE360   MatProp=Default
   Frame=48   AutoSelect=N.A.   AnalSect=IPE360   MatProp=Default
   Frame=49   AutoSelect=N.A.   AnalSect=IPE360   MatProp=Default
   Frame=50   AutoSelect=N.A.   AnalSect=HE400A   MatProp=Default
   Frame=51   AutoSelect=N.A.   AnalSect=HE400A   MatProp=Default
   Frame=52   AutoSelect=N.A.   AnalSect=2UPN80/10/   MatProp=Default
   Frame=53   AutoSelect=N.A.   AnalSect=IPE160   MatProp=Default
   Frame=54   AutoSelect=N.A.   AnalSect=IPE160   MatProp=Default
   Frame=55   AutoSelect=N.A.   AnalSect=HE400A   MatProp=Default
   Frame=56   AutoSelect=N.A.   AnalSect=HE400A   MatProp=Default
   Frame=57   AutoSelect=N.A.   AnalSect=HE400A   MatProp=Default
   Frame=58   AutoSelect=N.A.   AnalSect=IPE360   MatProp=Default
   Frame=59   AutoSelect=N.A.   AnalSect=IPE360   MatProp=Default
   Frame=60   AutoSelect=N.A.   AnalSect=IPE360   MatProp=Default
   Frame=61   AutoSelect=N.A.   AnalSect=IPE360   MatProp=Default
   Frame=62   AutoSelect=N.A.   AnalSect=HE400A   MatProp=Default
   Frame=63   AutoSelect=N.A.   AnalSect=HE400A   MatProp=Default
   Frame=64   AutoSelect=N.A.   AnalSect=2UPN80/10/   MatProp=Default
   Frame=65   AutoSelect=N.A.   AnalSect=IPE160   MatProp=Default
   Frame=66   AutoSelect=N.A.   AnalSect=IPE160   MatProp=Default
 
TABLE:  "FRAME SECTION PROPERTIES 01 - GENERAL"
   SectionName=2UPN80/10/   Material=A992Fy50   Shape="Double Channel"   t3=0.08   t2=0.1   tf=0.008   tw=0.006   dis=0.01   Area=0.002204   TorsConst=3.994E-08   I33=2.117E-06   I22=1.221E-06   I23=0   AS2=0.00096   AS3=0.0012 _
        S33=5.2925E-05   S22=2.442E-05   Z33=6.413E-05   Z22=4.285E-05   R33=0.0309923589903943   R22=0.0235370503774766   Color=Yellow   FromFile=Yes   AMod=1   A2Mod=1   A3Mod=1   JMod=1   I2Mod=1   I3Mod=1   MMod=1   WMod=1 _
        SectInFile=2UPN80/10/   FileName="c:\program files\computers and structures\sap2000 22\euro.pro"   Notes="Imported 20/12/2022 16:04:33 from Euro.pro"
   SectionName=HE400A   Material=A992Fy50   Shape="I/Wide Flange"   t3=0.39   t2=0.3   tf=0.019   tw=0.011   t2b=0.3   tfb=0.019   Area=0.0159   TorsConst=1.93E-06   I33=0.0004507   I22=8.564E-05   I23=0   AS2=0.00429   AS3=0.0095 _
        S33=0.00231128205128205   S22=0.000570933333333333   Z33=0.002562   Z22=0.000873   R33=0.168362442218226   R22=0.0733904865906514   Color=Green   FromFile=Yes   AMod=1   A2Mod=1   A3Mod=1   JMod=1   I2Mod=1   I3Mod=1   MMod=1 _
        WMod=1   SectInFile=HE400A   FileName="c:\program files\computers and structures\sap2000 22\euro.pro"   Notes="Imported 20/12/2022 15:35:21 from Euro.pro"
   SectionName=IPE160   Material=A992Fy50   Shape="I/Wide Flange"   t3=0.16   t2=0.082   tf=0.00740000009536743   tw=0.005   t2b=0.082   tfb=0.00740000009536743   Area=0.00201   TorsConst=3.54E-08   I33=8.69E-06   I22=6.83E-07   I23=0 _
        AS2=0.0008   AS3=0.00101133331298828   S33=0.000108625   S22=1.66585365853659E-05   Z33=0.000124   Z22=2.61E-05   R33=0.0657524378603342   R22=0.0184336918446869   Color=Cyan   FromFile=Yes   AMod=1   A2Mod=1   A3Mod=1   JMod=1 _
        I2Mod=1   I3Mod=1   MMod=1   WMod=1   SectInFile=IPE160   FileName="c:\program files\computers and structures\sap2000 22\euro.pro"   Notes="Imported 20/12/2022 16:06:33 from Euro.pro"
   SectionName=IPE360   Material=A992Fy50   Shape="I/Wide Flange"   t3=0.36   t2=0.17   tf=0.0126999998092651   tw=0.008   t2b=0.17   tfb=0.0126999998092651   Area=0.00727   TorsConst=3.74E-07   I33=0.0001627   I22=1.043E-05   I23=0 _
        AS2=0.00288   AS3=0.00359833325195313   S33=0.000903888888888889   S22=0.000122705882352941   Z33=0.001019   Z22=0.000191   R33=0.149598269929459   R22=0.0378769454764304   Color=Gray8Dark   FromFile=Yes   AMod=1   A2Mod=1   A3Mod=1 _
        JMod=1   I2Mod=1   I3Mod=1   MMod=1   WMod=1   SectInFile=IPE360   FileName="c:\program files\computers and structures\sap2000 22\euro.pro"   Notes="Imported 20/12/2022 15:34:58 from Euro.pro"
 
TABLE:  "FRAME SECTION PROPERTIES 13 - TIME DEPENDENT"
   SectionName=2UPN80/10/   TypeSize=Auto   AutoSFSize=1
   SectionName=HE400A   TypeSize=Auto   AutoSFSize=1
   SectionName=IPE160   TypeSize=Auto   AutoSFSize=1
   SectionName=IPE360   TypeSize=Auto   AutoSFSize=1
 
TABLE:  "FUNCTION - PLOT FUNCTIONS"
   PlotFunc="Input Energy"   Type=Energy   Component=Input   Mode=All
   PlotFunc=Joint52   Type=Joint   ObjectLabel=52   Component=RelDispU1   Mode=All
   PlotFunc="Modal Damping  Energy"   Type=Energy   Component="Modal Damping"   Mode=All
   PlotFunc="Link Hysteretic"   Type=Energy   Component="Link Hysteretic"   Mode=All
   PlotFunc=Link1   Type=Link   ObjectLabel=1   Component=DeformR3   Mode=All
   PlotFunc=Link1-1   Type=Link   ObjectLabel=1   Component=M3I   Mode=All
   PlotFunc=Link17   Type=Link   ObjectLabel=17   Component=DeformR3   Mode=All
   PlotFunc=Link17-1   Type=Link   ObjectLabel=17   Component=M3I   Mode=All
   PlotFunc=Link2   Type=Link   ObjectLabel=2   Component=DeformR3   Mode=All
   PlotFunc=Link2-1   Type=Link   ObjectLabel=2   Component=M3I   Mode=All
 
TABLE:  "FUNCTION - POWER SPECTRAL DENSITY - USER"
   Name=UNIFPSD   Frequency=0   Value=1
   Name=UNIFPSD   Frequency=1   Value=1
 
TABLE:  "FUNCTION - RESPONSE SPECTRUM - USER"
   Name=UNIFRS   Period=0   Accel=1   FuncDamp=0.05
   Name=UNIFRS   Period=1   Accel=1
 
TABLE:  "FUNCTION - STEADY STATE - USER"
   Name=UNIFSS   Frequency=0   Value=1
   Name=UNIFSS   Frequency=1   Value=1
 
TABLE:  "FUNCTION - TIME HISTORY - USER"
   Name=RAMPTH   Time=0   Value=0
   Name=RAMPTH   Time=1   Value=1
   Name=RAMPTH   Time=4   Value=1
   Name=UNIFTH   Time=0   Value=1
   Name=UNIFTH   Time=1   Value=1
 
TABLE:  "GRID LINES"
   CoordSys=GLOBAL   AxisDir=X   GridID=A   XRYZCoord=-8.25   LineType=Primary   LineColor=Gray8Dark   Visible=Yes   BubbleLoc=End   AllVisible=Yes   BubbleSize=1.375
   CoordSys=GLOBAL   AxisDir=X   GridID=B   XRYZCoord=-2.75   LineType=Primary   LineColor=Gray8Dark   Visible=Yes   BubbleLoc=End
   CoordSys=GLOBAL   AxisDir=X   GridID=C   XRYZCoord=2.75   LineType=Primary   LineColor=Gray8Dark   Visible=Yes   BubbleLoc=End
   CoordSys=GLOBAL   AxisDir=X   GridID=D   XRYZCoord=8.25   LineType=Primary   LineColor=Gray8Dark   Visible=Yes   BubbleLoc=End
   CoordSys=GLOBAL   AxisDir=Y   GridID=1   XRYZCoord=0   LineType=Primary   LineColor=Gray8Dark   Visible=Yes   BubbleLoc=Start
   CoordSys=GLOBAL   AxisDir=Z   GridID=Z1   XRYZCoord=0   LineType=Primary   LineColor=Gray8Dark   Visible=Yes   BubbleLoc=End
   CoordSys=GLOBAL   AxisDir=Z   GridID=Z2   XRYZCoord=3   LineType=Primary   LineColor=Gray8Dark   Visible=Yes   BubbleLoc=End
 
TABLE:  "GROUPS 1 - DEFINITIONS"
   GroupName=ALL   Selection=Yes   SectionCut=Yes   Steel=Yes   Concrete=Yes   Aluminum=Yes   ColdFormed=Yes   Stage=Yes   Bridge=Yes   AutoSeismic=No   AutoWind=No   SelDesSteel=No   SelDesAlum=No   SelDesCold=No   MassWeight=Yes   Color=Red
 
TABLE:  "JOINT COORDINATES"
   Joint=1   CoordSys=GLOBAL   CoordType=Cartesian   XorR=-8.25   Y=0   Z=0   SpecialJt=No   GUID=d9fd564e-834d-4dd5-9a86-6190b9a2fec4
   Joint=2   CoordSys=GLOBAL   CoordType=Cartesian   XorR=-8.25   Y=0   Z=3   SpecialJt=No   GUID=7ab87e9e-f00a-48d3-a1b7-6457fb9158cb
   Joint=3   CoordSys=GLOBAL   CoordType=Cartesian   XorR=-2.75   Y=0   Z=0   SpecialJt=No   GUID=0b44e824-9c92-4136-b462-44b2e4c37a6b
   Joint=4   CoordSys=GLOBAL   CoordType=Cartesian   XorR=-2.75   Y=0   Z=3   SpecialJt=No   GUID=e1a2b11b-3e4f-4d93-a2f4-a5cfc0d3f33d
   Joint=5   CoordSys=GLOBAL   CoordType=Cartesian   XorR=2.75   Y=0   Z=0   SpecialJt=No   GUID=786dd3e0-86db-4635-beb8-9e2287dab81f
   Joint=6   CoordSys=GLOBAL   CoordType=Cartesian   XorR=2.75   Y=0   Z=3   SpecialJt=No   GUID=30ed1147-6053-4300-b8e6-08b6d0c80196
   Joint=7   CoordSys=GLOBAL   CoordType=Cartesian   XorR=8.25   Y=0   Z=0   SpecialJt=No   GUID=d3623e4c-4dac-4947-a9f0-6ac5c7aafa9b
   Joint=8   CoordSys=GLOBAL   CoordType=Cartesian   XorR=8.25   Y=0   Z=3   SpecialJt=No   GUID=7f8dd886-e2ff-4a19-b849-cc293be6f841
   Joint=9   CoordSys=GLOBAL   CoordType=Cartesian   XorR=1.4   Y=0   Z=3   SpecialJt=Yes   GUID=32f2cb44-7105-4cc0-bc74-af3e20a27ed6
   Joint=10   CoordSys=GLOBAL   CoordType=Cartesian   XorR=2.75   Y=0   Z=1.8   SpecialJt=Yes   GUID=634342a7-ca51-4e64-a905-7fb99e63a2d9
   Joint=11   CoordSys=GLOBAL   CoordType=Cartesian   XorR=1.47474093186837   Y=0   Z=2.93356361611701   SpecialJt=No   GUID=108ce7ed-58b1-466f-982d-31b882b4bf27
   Joint=12   CoordSys=GLOBAL   CoordType=Cartesian   XorR=2.075   Y=0   Z=2.4   SpecialJt=Yes   GUID=a62ece4e-57d0-41eb-8650-bb578680d19c
   Joint=13   CoordSys=GLOBAL   CoordType=Cartesian   XorR=2.01497409318684   Y=0   Z=2.4533563616117   SpecialJt=No   GUID=aa25e00e-0105-4d09-970e-243b3e744cbb
   Joint=14   CoordSys=GLOBAL   CoordType=Cartesian   XorR=2.6825   Y=0   Z=1.86   SpecialJt=No   GUID=0f99e7b8-861d-4ac3-9c29-9d6bd5cc6224
   Joint=15   CoordSys=GLOBAL   CoordType=Cartesian   XorR=2.13575   Y=0   Z=2.346   SpecialJt=No   GUID=28e86857-844c-4842-9e64-61d871131ec9
   Joint=16   CoordSys=GLOBAL   CoordType=Cartesian   XorR=-8.25   Y=0   Z=6   SpecialJt=No   GUID=963628a2-b708-408a-bf6b-c0ba3a794e8c
   Joint=17   CoordSys=GLOBAL   CoordType=Cartesian   XorR=-2.75   Y=0   Z=6   SpecialJt=No   GUID=6b6cb520-b0f0-44fd-af87-c9094e25b0f2
   Joint=18   CoordSys=GLOBAL   CoordType=Cartesian   XorR=2.75   Y=0   Z=6   SpecialJt=No   GUID=68a5de6e-435f-475b-81b2-504e3510c361
   Joint=19   CoordSys=GLOBAL   CoordType=Cartesian   XorR=8.25   Y=0   Z=6   SpecialJt=No   GUID=9e79d870-3532-49b6-9445-bfafed3b216c
   Joint=20   CoordSys=GLOBAL   CoordType=Cartesian   XorR=1.4   Y=0   Z=6   SpecialJt=Yes   GUID=41d9a972-7e24-4eeb-a5a8-8620039614bb
   Joint=21   CoordSys=GLOBAL   CoordType=Cartesian   XorR=2.75   Y=0   Z=4.8   SpecialJt=Yes   GUID=19f047df-4f46-4a41-b9f7-960c44f42954
   Joint=22   CoordSys=GLOBAL   CoordType=Cartesian   XorR=2.075   Y=0   Z=5.4   SpecialJt=Yes   GUID=b5e700c9-266a-4584-aa03-548d49aff790
   Joint=23   CoordSys=GLOBAL   CoordType=Cartesian   XorR=1.47474093186837   Y=0   Z=5.93356361611701   SpecialJt=Yes   GUID=673e2a30-56c7-4128-bbcc-ebde496ac346
   Joint=24   CoordSys=GLOBAL   CoordType=Cartesian   XorR=2.01497409318684   Y=0   Z=5.4533563616117   SpecialJt=Yes   GUID=96f8296f-2ccb-4747-9295-1a0ff8f61c70
   Joint=25   CoordSys=GLOBAL   CoordType=Cartesian   XorR=2.6825   Y=0   Z=4.86   SpecialJt=Yes   GUID=1e385584-f2f4-48e1-9c6c-ff9cac9b1b00
   Joint=26   CoordSys=GLOBAL   CoordType=Cartesian   XorR=2.13575   Y=0   Z=5.346   SpecialJt=Yes   GUID=d9606ebf-420c-4054-8521-bb66b9b0b7ed
   Joint=27   CoordSys=GLOBAL   CoordType=Cartesian   XorR=-8.25   Y=0   Z=9   SpecialJt=No   GUID=d1921697-b857-482e-afe7-ac4e1629834e
   Joint=28   CoordSys=GLOBAL   CoordType=Cartesian   XorR=-2.75   Y=0   Z=9   SpecialJt=No   GUID=07c42fc4-4080-4724-9c07-e223d32a95d6
   Joint=29   CoordSys=GLOBAL   CoordType=Cartesian   XorR=2.75   Y=0   Z=9   SpecialJt=No   GUID=2a8c47af-2ac6-436e-8491-0dae8351db52
   Joint=30   CoordSys=GLOBAL   CoordType=Cartesian   XorR=8.25   Y=0   Z=9   SpecialJt=No   GUID=ff845934-c1e8-49c9-b4a3-7455bb10f529
   Joint=31   CoordSys=GLOBAL   CoordType=Cartesian   XorR=1.4   Y=0   Z=9   SpecialJt=Yes   GUID=78e47f78-13a7-422d-abcc-fbdfb8a94a02
   Joint=32   CoordSys=GLOBAL   CoordType=Cartesian   XorR=2.75   Y=0   Z=7.8   SpecialJt=Yes   GUID=7e61bd4f-f7c9-4c4c-a37d-e1c4108e809d
   Joint=33   CoordSys=GLOBAL   CoordType=Cartesian   XorR=2.075   Y=0   Z=8.4   SpecialJt=Yes   GUID=69ff10c6-d9c7-49ff-a138-808d70745be7
   Joint=34   CoordSys=GLOBAL   CoordType=Cartesian   XorR=1.47474093186837   Y=0   Z=8.93356361611701   SpecialJt=Yes   GUID=0b799139-2624-448c-bb92-1e4952928c70
   Joint=35   CoordSys=GLOBAL   CoordType=Cartesian   XorR=2.01497409318684   Y=0   Z=8.4533563616117   SpecialJt=Yes   GUID=d31071d3-8f3b-401e-a626-f4d78d86be59
   Joint=36   CoordSys=GLOBAL   CoordType=Cartesian   XorR=2.6825   Y=0   Z=7.86   SpecialJt=Yes   GUID=ab7acbd5-fbf7-4935-962e-2204334976e0
   Joint=37   CoordSys=GLOBAL   CoordType=Cartesian   XorR=2.13575   Y=0   Z=8.346   SpecialJt=Yes   GUID=4145c4d1-e167-4bf6-9b93-7cd62dc5cee4
   Joint=38   CoordSys=GLOBAL   CoordType=Cartesian   XorR=-8.25   Y=0   Z=12   SpecialJt=No   GUID=4fa3f68e-e9df-4c31-9a2b-2be6b9f8bc91
   Joint=39   CoordSys=GLOBAL   CoordType=Cartesian   XorR=-2.75   Y=0   Z=12   SpecialJt=No   GUID=25d11f0d-d76a-4c62-b523-196f9d7e2872
   Joint=40   CoordSys=GLOBAL   CoordType=Cartesian   XorR=2.75   Y=0   Z=12   SpecialJt=No   GUID=fffc7062-88a7-45c7-8349-57930317bc9f
   Joint=41   CoordSys=GLOBAL   CoordType=Cartesian   XorR=8.25   Y=0   Z=12   SpecialJt=No   GUID=78935ceb-9993-4de7-8f48-d19a18268511
   Joint=42   CoordSys=GLOBAL   CoordType=Cartesian   XorR=1.4   Y=0   Z=12   SpecialJt=Yes   GUID=cd223d63-92e0-46a0-ac29-706e2a296274
   Joint=43   CoordSys=GLOBAL   CoordType=Cartesian   XorR=2.75   Y=0   Z=10.8   SpecialJt=Yes   GUID=c51619dc-2948-46ce-bf2e-0a6406087353
   Joint=44   CoordSys=GLOBAL   CoordType=Cartesian   XorR=2.075   Y=0   Z=11.4   SpecialJt=Yes   GUID=8b712ad0-5585-4dce-8ab3-254c9f9eb143
   Joint=45   CoordSys=GLOBAL   CoordType=Cartesian   XorR=1.47474093186837   Y=0   Z=11.933563616117   SpecialJt=Yes   GUID=b4171fd9-5fa9-4113-b326-4b9da07b1ba2
   Joint=46   CoordSys=GLOBAL   CoordType=Cartesian   XorR=2.01497409318684   Y=0   Z=11.4533563616117   SpecialJt=Yes   GUID=79354529-c663-4314-a675-d0b396f04ddf
   Joint=47   CoordSys=GLOBAL   CoordType=Cartesian   XorR=2.6825   Y=0   Z=10.86   SpecialJt=Yes   GUID=8a77e916-08fc-4137-bdc4-eed525186654
   Joint=48   CoordSys=GLOBAL   CoordType=Cartesian   XorR=2.13575   Y=0   Z=11.346   SpecialJt=Yes   GUID=5d0d55a2-cc83-4461-9c4a-0ac5a1b25cba
   Joint=49   CoordSys=GLOBAL   CoordType=Cartesian   XorR=-8.25   Y=0   Z=15   SpecialJt=No   GUID=1b6f69dc-22e6-47ec-8e8e-372c993dc644
   Joint=50   CoordSys=GLOBAL   CoordType=Cartesian   XorR=-2.75   Y=0   Z=15   SpecialJt=No   GUID=ef735950-748b-4b34-8001-9efa1b633788
   Joint=51   CoordSys=GLOBAL   CoordType=Cartesian   XorR=2.75   Y=0   Z=15   SpecialJt=No   GUID=05802472-0494-4482-85ae-747b6e388204
   Joint=52   CoordSys=GLOBAL   CoordType=Cartesian   XorR=8.25   Y=0   Z=15   SpecialJt=No   GUID=8925b2d4-7851-4110-b753-8eade6f7bb79
   Joint=53   CoordSys=GLOBAL   CoordType=Cartesian   XorR=1.4   Y=0   Z=15   SpecialJt=Yes   GUID=db963e88-a891-472d-a61e-601f753b4245
   Joint=54   CoordSys=GLOBAL   CoordType=Cartesian   XorR=2.75   Y=0   Z=13.8   SpecialJt=Yes   GUID=bf29742a-4d86-498c-9acb-54bde2e0ac40
   Joint=55   CoordSys=GLOBAL   CoordType=Cartesian   XorR=2.075   Y=0   Z=14.4   SpecialJt=Yes   GUID=c5a87749-8e9c-4b3a-b281-8527df353048
   Joint=56   CoordSys=GLOBAL   CoordType=Cartesian   XorR=1.47474093186837   Y=0   Z=14.933563616117   SpecialJt=Yes   GUID=a86b17c4-7f39-442a-9c1a-3304ced1b889
   Joint=57   CoordSys=GLOBAL   CoordType=Cartesian   XorR=2.01497409318684   Y=0   Z=14.4533563616117   SpecialJt=Yes   GUID=64342374-1f95-43e6-94d2-24f8d09a3de4
   Joint=58   CoordSys=GLOBAL   CoordType=Cartesian   XorR=2.6825   Y=0   Z=13.86   SpecialJt=Yes   GUID=9f63fa3a-a5d4-45a3-aa20-a2c4e46c6445
   Joint=59   CoordSys=GLOBAL   CoordType=Cartesian   XorR=2.13575   Y=0   Z=14.346   SpecialJt=Yes   GUID=915d6f6c-09f4-49c2-954e-c68c0cb6f705
 
TABLE:  "JOINT PATTERN DEFINITIONS"
   Pattern=Default
 
TABLE:  "JOINT RESTRAINT ASSIGNMENTS"
   Joint=1   U1=Yes   U2=Yes   U3=Yes   R1=Yes   R2=Yes   R3=Yes
   Joint=3   U1=Yes   U2=Yes   U3=Yes   R1=Yes   R2=Yes   R3=Yes
   Joint=5   U1=Yes   U2=Yes   U3=Yes   R1=Yes   R2=Yes   R3=Yes
   Joint=7   U1=Yes   U2=Yes   U3=Yes   R1=Yes   R2=Yes   R3=Yes
 
TABLE:  "LINK PROPERTY ASSIGNMENTS"
   Link=1   LinkProp=LINK1   LinkFDProp=None   PropMod=1
   Link=2   LinkProp=LINK1   LinkFDProp=None   PropMod=1
   Link=3   LinkProp=LINK1   LinkFDProp=None   PropMod=1
   Link=4   LinkProp=LINK1   LinkFDProp=None   PropMod=1
   Link=5   LinkProp=LINK2   LinkFDProp=None   PropMod=1
   Link=6   LinkProp=LINK2   LinkFDProp=None   PropMod=1
   Link=7   LinkProp=LINK2   LinkFDProp=None   PropMod=1
   Link=8   LinkProp=LINK2   LinkFDProp=None   PropMod=1
   Link=9   LinkProp=LINK3   LinkFDProp=None   PropMod=1
   Link=10   LinkProp=LINK3   LinkFDProp=None   PropMod=1
   Link=11   LinkProp=LINK3   LinkFDProp=None   PropMod=1
   Link=12   LinkProp=LINK3   LinkFDProp=None   PropMod=1
   Link=13   LinkProp=LINK4   LinkFDProp=None   PropMod=1
   Link=14   LinkProp=LINK4   LinkFDProp=None   PropMod=1
   Link=15   LinkProp=LINK4   LinkFDProp=None   PropMod=1
   Link=16   LinkProp=LINK4   LinkFDProp=None   PropMod=1
   Link=17   LinkProp=LINK5   LinkFDProp=None   PropMod=1
   Link=18   LinkProp=LINK5   LinkFDProp=None   PropMod=1
   Link=19   LinkProp=LINK5   LinkFDProp=None   PropMod=1
   Link=20   LinkProp=LINK5   LinkFDProp=None   PropMod=1
 
TABLE:  "LINK PROPERTY DEFINITIONS 01 - GENERAL"
   Link=LINK1   LinkType="Plastic (Wen)"   Mass=0   Weight=0   RotInert1=0   RotInert2=0   RotInert3=0   DefLength=1   DefArea=1   PDM2I=0.5   PDM2J=0.5   PDM3I=0.5   PDM3J=0.5   StiffLOpt="Effective from Zero"   StiffDOpt=Initial _
        StiffDFact=1   Color=Yellow
   Link=LINK2   LinkType="Plastic (Wen)"   Mass=0   Weight=0   RotInert1=0   RotInert2=0   RotInert3=0   DefLength=1   DefArea=1   PDM2I=0.5   PDM2J=0.5   PDM3I=0.5   PDM3J=0.5   StiffLOpt="Effective from Zero"   StiffDOpt=Initial _
        StiffDFact=1   Color=Gray8Dark
   Link=LINK3   LinkType="Plastic (Wen)"   Mass=0   Weight=0   RotInert1=0   RotInert2=0   RotInert3=0   DefLength=1   DefArea=1   PDM2I=0.5   PDM2J=0.5   PDM3I=0.5   PDM3J=0.5   StiffLOpt="Effective from Zero"   StiffDOpt=Initial _
        StiffDFact=1   Color=Blue
   Link=LINK4   LinkType="Plastic (Wen)"   Mass=0   Weight=0   RotInert1=0   RotInert2=0   RotInert3=0   DefLength=1   DefArea=1   PDM2I=0.5   PDM2J=0.5   PDM3I=0.5   PDM3J=0.5   StiffLOpt="Effective from Zero"   StiffDOpt=Initial _
        StiffDFact=1   Color=Green
   Link=LINK5   LinkType="Plastic (Wen)"   Mass=0   Weight=0   RotInert1=0   RotInert2=0   RotInert3=0   DefLength=1   DefArea=1   PDM2I=0.5   PDM2J=0.5   PDM3I=0.5   PDM3J=0.5   StiffLOpt="Effective from Zero"   StiffDOpt=Initial _
        StiffDFact=1   Color=Cyan
 
TABLE:  "LINK PROPERTY DEFINITIONS 10 - PLASTIC (WEN)"
   Link=LINK1   DOF=U1   Fixed=Yes
   Link=LINK1   DOF=U2   Fixed=Yes
   Link=LINK1   DOF=U3   Fixed=Yes
   Link=LINK1   DOF=R1   Fixed=Yes
   Link=LINK1   DOF=R2   Fixed=Yes
   Link=LINK1   DOF=R3   Fixed=No   NonLinear=Yes   RotKE=100000   RotCE=0   RotK=100000   RotYield=153   Ratio=0.03   YieldExp=2
   Link=LINK2   DOF=U1   Fixed=Yes
   Link=LINK2   DOF=U2   Fixed=Yes
   Link=LINK2   DOF=U3   Fixed=Yes
   Link=LINK2   DOF=R1   Fixed=Yes
   Link=LINK2   DOF=R2   Fixed=Yes
   Link=LINK2   DOF=R3   Fixed=No   NonLinear=Yes   RotKE=100000   RotCE=0   RotK=100000   RotYield=182   Ratio=0.03   YieldExp=2
   Link=LINK3   DOF=U1   Fixed=Yes
   Link=LINK3   DOF=U2   Fixed=Yes
   Link=LINK3   DOF=U3   Fixed=Yes
   Link=LINK3   DOF=R1   Fixed=Yes
   Link=LINK3   DOF=R2   Fixed=Yes
   Link=LINK3   DOF=R3   Fixed=No   NonLinear=Yes   RotKE=100000   RotCE=0   RotK=100000   RotYield=274   Ratio=0.03   YieldExp=2
   Link=LINK4   DOF=U1   Fixed=Yes
   Link=LINK4   DOF=U2   Fixed=Yes
   Link=LINK4   DOF=U3   Fixed=Yes
   Link=LINK4   DOF=R1   Fixed=Yes
   Link=LINK4   DOF=R2   Fixed=Yes
   Link=LINK4   DOF=R3   Fixed=No   NonLinear=Yes   RotKE=100000   RotCE=0   RotK=100000   RotYield=243   Ratio=0.03   YieldExp=2
   Link=LINK5   DOF=U1   Fixed=Yes
   Link=LINK5   DOF=U2   Fixed=Yes
   Link=LINK5   DOF=U3   Fixed=Yes
   Link=LINK5   DOF=R1   Fixed=Yes
   Link=LINK5   DOF=R2   Fixed=Yes
   Link=LINK5   DOF=R3   Fixed=No   NonLinear=Yes   RotKE=100000   RotCE=0   RotK=100000   RotYield=168   Ratio=0.03   YieldExp=2
 
TABLE:  "LOAD CASE DEFINITIONS"
   Case=DEAD   Type=NonStatic   InitialCond=Zero   DesTypeOpt="Prog Det"   DesignType=Dead   DesActOpt="Prog Det"   DesignAct=Non-Composite   AutoType=None   RunCase=Yes   GUID=037c4929-4bdd-48ff-bbd6-a4f04c7a6cfc
   Case=MODAL   Type=LinModal   InitialCond=Zero   DesTypeOpt="Prog Det"   DesignType=Other   DesActOpt="Prog Det"   DesignAct=Other   AutoType=None   RunCase=Yes   GUID=771cc65c-9352-477b-9d44-c485965aa958
   Case=LL   Type=LinStatic   InitialCond=Zero   DesTypeOpt="Prog Det"   DesignType=Live   DesActOpt="Prog Det"   DesignAct="Short-Term Composite"   AutoType=None   RunCase=Yes   GUID=58beff79-83f5-4db8-bd0e-e713db87e6b6
   Case=ARTIF1   Type=NonModHist   InitialCond=Zero   ModalCase=MODAL   DesTypeOpt="Prog Det"   DesignType=Quake   DesActOpt="Prog Det"   DesignAct="Short-Term Composite"   AutoType=None   RunCase=Yes   GUID=b7d34d28-4846-4671-bb01-54fa4d9803c6
 
TABLE:  "LOAD PATTERN DEFINITIONS"
   LoadPat=DEAD   DesignType=Dead   SelfWtMult=1   GUID=b09a7c00-60c1-4f6d-b0be-34f0bbc6b674
   LoadPat=LL   DesignType=Live   SelfWtMult=0   GUID=64d898e0-9dd3-4fd4-8408-367b9570d064   Notes="Added 20/12/2022 16:00:13"
 
TABLE:  "MASS SOURCE"
   MassSource=MSSSRC1   Elements=No   Masses=No   Loads=Yes   IsDefault=Yes   LoadPat=DEAD   Multiplier=1
   MassSource=MSSSRC1   LoadPat=LL   Multiplier=0.2
 
TABLE:  "MATERIAL PROPERTIES 01 - GENERAL"
   Material=4000Psi   Type=Concrete   Grade="f'c 4000 psi"   SymType=Isotropic   TempDepend=No   Color=Yellow   GUID=522678ed-bb4e-45ec-a3ab-9c0a4365b9b2   Notes="Customary f'c 4000 psi 20/12/2022 15:34:05"
   Material=A416Gr270   Type=Tendon   Grade="Grade 270"   SymType=Uniaxial   TempDepend=No   Color=Cyan   GUID=def260dd-06e8-4190-b410-e06be46a151f   Notes="ASTM A416 Grade 270 21/12/2022 12:01:15"
   Material=A992Fy50   Type=Steel   Grade="Grade 50"   SymType=Isotropic   TempDepend=No   Color=Magenta   Notes="ASTM A992 Grade 50 20/12/2022 15:34:05"
 
TABLE:  "MATERIAL PROPERTIES 02 - BASIC MECHANICAL PROPERTIES"
   Material=4000Psi   UnitWeight=23.5631216161854   UnitMass=2.40276960558926   E1=24855578.0600518   G12=10356490.8583549   U12=0.2   A1=9.89999952793124E-06
   Material=A416Gr270   UnitWeight=76.9728639422648   UnitMass=7.84904737995992   E1=196500599.8512   A1=1.16999994421006E-05
   Material=A992Fy50   UnitWeight=76.9728639422648   UnitMass=7.84904737995992   E1=199947978.795958   G12=76903068.767676   U12=0.3   A1=1.16999994421006E-05
 
TABLE:  "MATERIAL PROPERTIES 03A - STEEL DATA"
   Material=A992Fy50   Fy=344737.894475789   Fu=448159.262818526   EffFy=379211.683923368   EffFu=492975.189100378   SSCurveOpt=Simple   SSHysType=Kinematic   SHard=0.015   SMax=0.11   SRup=0.17   FinalSlope=-0.1
 
TABLE:  "MATERIAL PROPERTIES 03B - CONCRETE DATA"
   Material=4000Psi   Fc=27579.0315580631   eFc=27579.0315580631   LtWtConc=No   SSCurveOpt=Mander   SSHysType=Takeda   SFc=0.00221914   SCap=0.005   FinalSlope=-0.1   FAngle=0   DAngle=0
 
TABLE:  "MATERIAL PROPERTIES 03F - TENDON DATA"
   Material=A416Gr270   Fy=1689905.15872032   Fu=1861584.63016926   SSCurveOpt="270 ksi"   SSHysType=Kinematic   FinalSlope=-0.1
 
TABLE:  "MATERIAL PROPERTIES 06 - DAMPING PARAMETERS"
   Material=4000Psi   ModalRatio=0   VisMass=0   VisStiff=0   HysMass=0   HysStiff=0
   Material=A416Gr270   ModalRatio=0   VisMass=0   VisStiff=0   HysMass=0   HysStiff=0
   Material=A992Fy50   ModalRatio=0   VisMass=0   VisStiff=0   HysMass=0   HysStiff=0
 
TABLE:  "OPTIONS - COLORS - DISPLAY"
   DeviceType=Screen   Points=Blue   LinesFrame=Blue   LinesFrmDL=Blue   LinesCable=Green   LinesTendon=Green   SpringLinks=Green   Restraints=Green   Releases=Green   Axes=Cyan   Text=Black   ShadowLines=Gray8Dark   GuideLines=Gray8Dark _
        Highlight=Red   Selection=10504778   AreaFillBot=Red   AreaFillTop=16744703   AreaFillSd=Red   AreaEdge=DarkRed   SolidF1=Red   SolidF2=Blue   SolidF3=Green   SolidF4=Yellow   SolidF5=White   SolidF6=Cyan   SolidEdge=DarkRed _
        Floor=Gray4   Background=White   BGLowLeft=White   BGLowRight=White   BGUpRight=White   Darkness=0.5
   DeviceType=Printer   Points=Gray8Dark   LinesFrame=Black   LinesFrmDL=Gray4   LinesCable=Black   LinesTendon=Black   SpringLinks=Gray8Dark   Restraints=Gray8Dark   Releases=Gray4   Axes=Black   Text=Black   ShadowLines=Gray4 _
        GuideLines=Gray4   Highlight=Black   Selection=Black   AreaFillBot=Gray4   AreaFillTop=Gray8Dark   AreaFillSd=Gray4   AreaEdge=Black   SolidF1=Gray1Light   SolidF2=Gray2   SolidF3=Gray3   SolidF4=Gray4   SolidF5=Gray5 _
        SolidF6=Gray6   SolidEdge=Black   Floor=Gray4   Background=White   BGLowLeft=White   BGLowRight=White   BGUpRight=White   Darkness=0.5
   DeviceType="Color Printer"   Points=Blue   LinesFrame=Blue   LinesFrmDL=Blue   LinesCable=Green   LinesTendon=Green   SpringLinks=Green   Restraints=Green   Releases=Green   Axes=Cyan   Text=Black   ShadowLines=Gray8Dark _
        GuideLines=Gray8Dark   Highlight=Red   Selection=10504778   AreaFillBot=Red   AreaFillTop=16744703   AreaFillSd=Red   AreaEdge=DarkRed   SolidF1=Red   SolidF2=Blue   SolidF3=Green   SolidF4=Yellow   SolidF5=White   SolidF6=Cyan _
        SolidEdge=DarkRed   Floor=Gray4   Background=White   BGLowLeft=White   BGLowRight=White   BGUpRight=White   Darkness=0.5
 
TABLE:  "OPTIONS - COLORS - OUTPUT"
   DeviceType=Screen   Contour1=13107400   Contour2=6553828   Contour3=Red   Contour4=16639   Contour5=Orange   Contour6=43775   Contour7=54527   Contour8=Yellow   Contour9=65408   Contour10=Green   Contour11=8453888   Contour12=Cyan _
        Contour13=16755200   Contour14=16733440   Contour15=Blue   Transpare=0.5   Ratio1=Cyan   Ratio2=Green   Ratio3=Yellow   Ratio4=Orange   Ratio5=Red   RatioNotD=Gray4   RatioNotC=Red   RatioVal1=0.5   RatioVal2=0.7   RatioVal3=0.9 _
        RatioVal4=1   DFillPos=Blue   DFillNeg=Red   DFillRPos=Green   DFillRNeg=Green
   DeviceType=Printer   Contour1=Black   Contour2=3158064   Contour3=4210752   Contour4=5263440   Contour5=6316128   Contour6=7368816   Contour7=Gray8Dark   Contour8=Gray7   Contour9=Gray6   Contour10=Gray5   Contour11=Gray4 _
        Contour12=Gray3   Contour13=Gray2   Contour14=Gray1Light   Contour15=White   Transpare=0   Ratio1=Gray2   Ratio2=Gray4   Ratio3=Gray8Dark   Ratio4=4210752   Ratio5=Black   RatioNotD=Gray4   RatioNotC=Black   RatioVal1=0.5 _
        RatioVal2=0.7   RatioVal3=0.9   RatioVal4=1   DFillPos=Gray8Dark   DFillNeg=Gray8Dark   DFillRPos=4210752   DFillRNeg=4210752
   DeviceType="Color Printer"   Contour1=13107400   Contour2=6553828   Contour3=Red   Contour4=16639   Contour5=Orange   Contour6=43775   Contour7=54527   Contour8=Yellow   Contour9=65408   Contour10=Green   Contour11=8453888 _
        Contour12=Cyan   Contour13=16755200   Contour14=16733440   Contour15=Blue   Transpare=0   Ratio1=Cyan   Ratio2=Green   Ratio3=Yellow   Ratio4=Orange   Ratio5=Red   RatioNotD=Gray4   RatioNotC=Red   RatioVal1=0.5   RatioVal2=0.7 _
        RatioVal3=0.9   RatioVal4=1   DFillPos=Blue   DFillNeg=Red   DFillRPos=Green   DFillRNeg=Green
 
TABLE:  "OVERWRITES - STEEL DESIGN - AISC 360-16"
   Frame=1   DesignSect="Program Determined"   FrameType="Program Determined"   Fy=0   RLLF=0   AreaRatio=0   XLMajor=0   XLMinor=0   XLLTB=0   K1Major=0   K1Minor=0   K2Major=0   K2Minor=0   KLTB=0   CmMajor=0   CmMinor=0   Cb=0 _
        B1Major=0   B1Minor=0   B2Major=0   B2Minor=0   HSSReduceT="Program Determined"   HSSWelding="Program Determined"   Omega0=0   Ry=0   Pnc=0   Pnt=0   Mn3=0   Mn2=0   Vn2=0   Vn3=0   CheckDefl="Program Determined" _
        DeflType="Program Determined"   DLRat=0   SDLAndLLRat=0   LLRat=0   TotalRat=0   NetRat=0   DLAbs=0   SDLAndLLAbs=0   LLAbs=0   TotalAbs=0   NetAbs=0   SpecCamber=0   DCLimit=0
   Frame=2   DesignSect="Program Determined"   FrameType="Program Determined"   Fy=0   RLLF=0   AreaRatio=0   XLMajor=0   XLMinor=0   XLLTB=0   K1Major=0   K1Minor=0   K2Major=0   K2Minor=0   KLTB=0   CmMajor=0   CmMinor=0   Cb=0 _
        B1Major=0   B1Minor=0   B2Major=0   B2Minor=0   HSSReduceT="Program Determined"   HSSWelding="Program Determined"   Omega0=0   Ry=0   Pnc=0   Pnt=0   Mn3=0   Mn2=0   Vn2=0   Vn3=0   CheckDefl="Program Determined" _
        DeflType="Program Determined"   DLRat=0   SDLAndLLRat=0   LLRat=0   TotalRat=0   NetRat=0   DLAbs=0   SDLAndLLAbs=0   LLAbs=0   TotalAbs=0   NetAbs=0   SpecCamber=0   DCLimit=0
   Frame=4   DesignSect="Program Determined"   FrameType="Program Determined"   Fy=0   RLLF=0   AreaRatio=0   XLMajor=0   XLMinor=0   XLLTB=0   K1Major=0   K1Minor=0   K2Major=0   K2Minor=0   KLTB=0   CmMajor=0   CmMinor=0   Cb=0 _
        B1Major=0   B1Minor=0   B2Major=0   B2Minor=0   HSSReduceT="Program Determined"   HSSWelding="Program Determined"   Omega0=0   Ry=0   Pnc=0   Pnt=0   Mn3=0   Mn2=0   Vn2=0   Vn3=0   CheckDefl="Program Determined" _
        DeflType="Program Determined"   DLRat=0   SDLAndLLRat=0   LLRat=0   TotalRat=0   NetRat=0   DLAbs=0   SDLAndLLAbs=0   LLAbs=0   TotalAbs=0   NetAbs=0   SpecCamber=0   DCLimit=0
   Frame=5   DesignSect="Program Determined"   FrameType="Program Determined"   Fy=0   RLLF=0   AreaRatio=0   XLMajor=0   XLMinor=0   XLLTB=0   K1Major=0   K1Minor=0   K2Major=0   K2Minor=0   KLTB=0   CmMajor=0   CmMinor=0   Cb=0 _
        B1Major=0   B1Minor=0   B2Major=0   B2Minor=0   HSSReduceT="Program Determined"   HSSWelding="Program Determined"   Omega0=0   Ry=0   Pnc=0   Pnt=0   Mn3=0   Mn2=0   Vn2=0   Vn3=0   CheckDefl="Program Determined" _
        DeflType="Program Determined"   DLRat=0   SDLAndLLRat=0   LLRat=0   TotalRat=0   NetRat=0   DLAbs=0   SDLAndLLAbs=0   LLAbs=0   TotalAbs=0   NetAbs=0   SpecCamber=0   DCLimit=0
   Frame=7   DesignSect="Program Determined"   FrameType="Program Determined"   Fy=0   RLLF=0   AreaRatio=0   XLMajor=0   XLMinor=0   XLLTB=0   K1Major=0   K1Minor=0   K2Major=0   K2Minor=0   KLTB=0   CmMajor=0   CmMinor=0   Cb=0 _
        B1Major=0   B1Minor=0   B2Major=0   B2Minor=0   HSSReduceT="Program Determined"   HSSWelding="Program Determined"   Omega0=0   Ry=0   Pnc=0   Pnt=0   Mn3=0   Mn2=0   Vn2=0   Vn3=0   CheckDefl="Program Determined" _
        DeflType="Program Determined"   DLRat=0   SDLAndLLRat=0   LLRat=0   TotalRat=0   NetRat=0   DLAbs=0   SDLAndLLAbs=0   LLAbs=0   TotalAbs=0   NetAbs=0   SpecCamber=0   DCLimit=0
   Frame=8   DesignSect="Program Determined"   FrameType="Program Determined"   Fy=0   RLLF=0   AreaRatio=0   XLMajor=0   XLMinor=0   XLLTB=0   K1Major=0   K1Minor=0   K2Major=0   K2Minor=0   KLTB=0   CmMajor=0   CmMinor=0   Cb=0 _
        B1Major=0   B1Minor=0   B2Major=0   B2Minor=0   HSSReduceT="Program Determined"   HSSWelding="Program Determined"   Omega0=0   Ry=0   Pnc=0   Pnt=0   Mn3=0   Mn2=0   Vn2=0   Vn3=0   CheckDefl="Program Determined" _
        DeflType="Program Determined"   DLRat=0   SDLAndLLRat=0   LLRat=0   TotalRat=0   NetRat=0   DLAbs=0   SDLAndLLAbs=0   LLAbs=0   TotalAbs=0   NetAbs=0   SpecCamber=0   DCLimit=0
   Frame=9   DesignSect="Program Determined"   FrameType="Program Determined"   Fy=0   RLLF=0   AreaRatio=0   XLMajor=0   XLMinor=0   XLLTB=0   K1Major=0   K1Minor=0   K2Major=0   K2Minor=0   KLTB=0   CmMajor=0   CmMinor=0   Cb=0 _
        B1Major=0   B1Minor=0   B2Major=0   B2Minor=0   HSSReduceT="Program Determined"   HSSWelding="Program Determined"   Omega0=0   Ry=0   Pnc=0   Pnt=0   Mn3=0   Mn2=0   Vn2=0   Vn3=0   CheckDefl="Program Determined" _
        DeflType="Program Determined"   DLRat=0   SDLAndLLRat=0   LLRat=0   TotalRat=0   NetRat=0   DLAbs=0   SDLAndLLAbs=0   LLAbs=0   TotalAbs=0   NetAbs=0   SpecCamber=0   DCLimit=0
   Frame=10   DesignSect="Program Determined"   FrameType="Program Determined"   Fy=0   RLLF=0   AreaRatio=0   XLMajor=0   XLMinor=0   XLLTB=0   K1Major=0   K1Minor=0   K2Major=0   K2Minor=0   KLTB=0   CmMajor=0   CmMinor=0   Cb=0 _
        B1Major=0   B1Minor=0   B2Major=0   B2Minor=0   HSSReduceT="Program Determined"   HSSWelding="Program Determined"   Omega0=0   Ry=0   Pnc=0   Pnt=0   Mn3=0   Mn2=0   Vn2=0   Vn3=0   CheckDefl="Program Determined" _
        DeflType="Program Determined"   DLRat=0   SDLAndLLRat=0   LLRat=0   TotalRat=0   NetRat=0   DLAbs=0   SDLAndLLAbs=0   LLAbs=0   TotalAbs=0   NetAbs=0   SpecCamber=0   DCLimit=0
   Frame=11   DesignSect="Program Determined"   FrameType="Program Determined"   Fy=0   RLLF=0   AreaRatio=0   XLMajor=0   XLMinor=0   XLLTB=0   K1Major=0   K1Minor=0   K2Major=0   K2Minor=0   KLTB=0   CmMajor=0   CmMinor=0   Cb=0 _
        B1Major=0   B1Minor=0   B2Major=0   B2Minor=0   HSSReduceT="Program Determined"   HSSWelding="Program Determined"   Omega0=0   Ry=0   Pnc=0   Pnt=0   Mn3=0   Mn2=0   Vn2=0   Vn3=0   CheckDefl="Program Determined" _
        DeflType="Program Determined"   DLRat=0   SDLAndLLRat=0   LLRat=0   TotalRat=0   NetRat=0   DLAbs=0   SDLAndLLAbs=0   LLAbs=0   TotalAbs=0   NetAbs=0   SpecCamber=0   DCLimit=0
   Frame=17   DesignSect="Program Determined"   FrameType="Program Determined"   Fy=0   RLLF=0   AreaRatio=0   XLMajor=0   XLMinor=0   XLLTB=0   K1Major=0   K1Minor=0   K2Major=0   K2Minor=0   KLTB=0   CmMajor=0   CmMinor=0   Cb=0 _
        B1Major=0   B1Minor=0   B2Major=0   B2Minor=0   HSSReduceT="Program Determined"   HSSWelding="Program Determined"   Omega0=0   Ry=0   Pnc=0   Pnt=0   Mn3=0   Mn2=0   Vn2=0   Vn3=0   CheckDefl="Program Determined" _
        DeflType="Program Determined"   DLRat=0   SDLAndLLRat=0   LLRat=0   TotalRat=0   NetRat=0   DLAbs=0   SDLAndLLAbs=0   LLAbs=0   TotalAbs=0   NetAbs=0   SpecCamber=0   DCLimit=0
   Frame=12   DesignSect="Program Determined"   FrameType="Program Determined"   Fy=0   RLLF=0   AreaRatio=0   XLMajor=0   XLMinor=0   XLLTB=0   K1Major=0   K1Minor=0   K2Major=0   K2Minor=0   KLTB=0   CmMajor=0   CmMinor=0   Cb=0 _
        B1Major=0   B1Minor=0   B2Major=0   B2Minor=0   HSSReduceT="Program Determined"   HSSWelding="Program Determined"   Omega0=0   Ry=0   Pnc=0   Pnt=0   Mn3=0   Mn2=0   Vn2=0   Vn3=0   CheckDefl="Program Determined" _
        DeflType="Program Determined"   DLRat=0   SDLAndLLRat=0   LLRat=0   TotalRat=0   NetRat=0   DLAbs=0   SDLAndLLAbs=0   LLAbs=0   TotalAbs=0   NetAbs=0   SpecCamber=0   DCLimit=0
   Frame=18   DesignSect="Program Determined"   FrameType="Program Determined"   Fy=0   RLLF=0   AreaRatio=0   XLMajor=0   XLMinor=0   XLLTB=0   K1Major=0   K1Minor=0   K2Major=0   K2Minor=0   KLTB=0   CmMajor=0   CmMinor=0   Cb=0 _
        B1Major=0   B1Minor=0   B2Major=0   B2Minor=0   HSSReduceT="Program Determined"   HSSWelding="Program Determined"   Omega0=0   Ry=0   Pnc=0   Pnt=0   Mn3=0   Mn2=0   Vn2=0   Vn3=0   CheckDefl="Program Determined" _
        DeflType="Program Determined"   DLRat=0   SDLAndLLRat=0   LLRat=0   TotalRat=0   NetRat=0   DLAbs=0   SDLAndLLAbs=0   LLAbs=0   TotalAbs=0   NetAbs=0   SpecCamber=0   DCLimit=0
   Frame=19   DesignSect="Program Determined"   FrameType="Program Determined"   Fy=0   RLLF=0   AreaRatio=0   XLMajor=0   XLMinor=0   XLLTB=0   K1Major=0   K1Minor=0   K2Major=0   K2Minor=0   KLTB=0   CmMajor=0   CmMinor=0   Cb=0 _
        B1Major=0   B1Minor=0   B2Major=0   B2Minor=0   HSSReduceT="Program Determined"   HSSWelding="Program Determined"   Omega0=0   Ry=0   Pnc=0   Pnt=0   Mn3=0   Mn2=0   Vn2=0   Vn3=0   CheckDefl="Program Determined" _
        DeflType="Program Determined"   DLRat=0   SDLAndLLRat=0   LLRat=0   TotalRat=0   NetRat=0   DLAbs=0   SDLAndLLAbs=0   LLAbs=0   TotalAbs=0   NetAbs=0   SpecCamber=0   DCLimit=0
   Frame=20   DesignSect="Program Determined"   FrameType="Program Determined"   Fy=0   RLLF=0   AreaRatio=0   XLMajor=0   XLMinor=0   XLLTB=0   K1Major=0   K1Minor=0   K2Major=0   K2Minor=0   KLTB=0   CmMajor=0   CmMinor=0   Cb=0 _
        B1Major=0   B1Minor=0   B2Major=0   B2Minor=0   HSSReduceT="Program Determined"   HSSWelding="Program Determined"   Omega0=0   Ry=0   Pnc=0   Pnt=0   Mn3=0   Mn2=0   Vn2=0   Vn3=0   CheckDefl="Program Determined" _
        DeflType="Program Determined"   DLRat=0   SDLAndLLRat=0   LLRat=0   TotalRat=0   NetRat=0   DLAbs=0   SDLAndLLAbs=0   LLAbs=0   TotalAbs=0   NetAbs=0   SpecCamber=0   DCLimit=0
   Frame=21   DesignSect="Program Determined"   FrameType="Program Determined"   Fy=0   RLLF=0   AreaRatio=0   XLMajor=0   XLMinor=0   XLLTB=0   K1Major=0   K1Minor=0   K2Major=0   K2Minor=0   KLTB=0   CmMajor=0   CmMinor=0   Cb=0 _
        B1Major=0   B1Minor=0   B2Major=0   B2Minor=0   HSSReduceT="Program Determined"   HSSWelding="Program Determined"   Omega0=0   Ry=0   Pnc=0   Pnt=0   Mn3=0   Mn2=0   Vn2=0   Vn3=0   CheckDefl="Program Determined" _
        DeflType="Program Determined"   DLRat=0   SDLAndLLRat=0   LLRat=0   TotalRat=0   NetRat=0   DLAbs=0   SDLAndLLAbs=0   LLAbs=0   TotalAbs=0   NetAbs=0   SpecCamber=0   DCLimit=0
   Frame=22   DesignSect="Program Determined"   FrameType="Program Determined"   Fy=0   RLLF=0   AreaRatio=0   XLMajor=0   XLMinor=0   XLLTB=0   K1Major=0   K1Minor=0   K2Major=0   K2Minor=0   KLTB=0   CmMajor=0   CmMinor=0   Cb=0 _
        B1Major=0   B1Minor=0   B2Major=0   B2Minor=0   HSSReduceT="Program Determined"   HSSWelding="Program Determined"   Omega0=0   Ry=0   Pnc=0   Pnt=0   Mn3=0   Mn2=0   Vn2=0   Vn3=0   CheckDefl="Program Determined" _
        DeflType="Program Determined"   DLRat=0   SDLAndLLRat=0   LLRat=0   TotalRat=0   NetRat=0   DLAbs=0   SDLAndLLAbs=0   LLAbs=0   TotalAbs=0   NetAbs=0   SpecCamber=0   DCLimit=0
   Frame=23   DesignSect="Program Determined"   FrameType="Program Determined"   Fy=0   RLLF=0   AreaRatio=0   XLMajor=0   XLMinor=0   XLLTB=0   K1Major=0   K1Minor=0   K2Major=0   K2Minor=0   KLTB=0   CmMajor=0   CmMinor=0   Cb=0 _
        B1Major=0   B1Minor=0   B2Major=0   B2Minor=0   HSSReduceT="Program Determined"   HSSWelding="Program Determined"   Omega0=0   Ry=0   Pnc=0   Pnt=0   Mn3=0   Mn2=0   Vn2=0   Vn3=0   CheckDefl="Program Determined" _
        DeflType="Program Determined"   DLRat=0   SDLAndLLRat=0   LLRat=0   TotalRat=0   NetRat=0   DLAbs=0   SDLAndLLAbs=0   LLAbs=0   TotalAbs=0   NetAbs=0   SpecCamber=0   DCLimit=0
   Frame=24   DesignSect="Program Determined"   FrameType="Program Determined"   Fy=0   RLLF=0   AreaRatio=0   XLMajor=0   XLMinor=0   XLLTB=0   K1Major=0   K1Minor=0   K2Major=0   K2Minor=0   KLTB=0   CmMajor=0   CmMinor=0   Cb=0 _
        B1Major=0   B1Minor=0   B2Major=0   B2Minor=0   HSSReduceT="Program Determined"   HSSWelding="Program Determined"   Omega0=0   Ry=0   Pnc=0   Pnt=0   Mn3=0   Mn2=0   Vn2=0   Vn3=0   CheckDefl="Program Determined" _
        DeflType="Program Determined"   DLRat=0   SDLAndLLRat=0   LLRat=0   TotalRat=0   NetRat=0   DLAbs=0   SDLAndLLAbs=0   LLAbs=0   TotalAbs=0   NetAbs=0   SpecCamber=0   DCLimit=0
   Frame=25   DesignSect="Program Determined"   FrameType="Program Determined"   Fy=0   RLLF=0   AreaRatio=0   XLMajor=0   XLMinor=0   XLLTB=0   K1Major=0   K1Minor=0   K2Major=0   K2Minor=0   KLTB=0   CmMajor=0   CmMinor=0   Cb=0 _
        B1Major=0   B1Minor=0   B2Major=0   B2Minor=0   HSSReduceT="Program Determined"   HSSWelding="Program Determined"   Omega0=0   Ry=0   Pnc=0   Pnt=0   Mn3=0   Mn2=0   Vn2=0   Vn3=0   CheckDefl="Program Determined" _
        DeflType="Program Determined"   DLRat=0   SDLAndLLRat=0   LLRat=0   TotalRat=0   NetRat=0   DLAbs=0   SDLAndLLAbs=0   LLAbs=0   TotalAbs=0   NetAbs=0   SpecCamber=0   DCLimit=0
   Frame=26   DesignSect="Program Determined"   FrameType="Program Determined"   Fy=0   RLLF=0   AreaRatio=0   XLMajor=0   XLMinor=0   XLLTB=0   K1Major=0   K1Minor=0   K2Major=0   K2Minor=0   KLTB=0   CmMajor=0   CmMinor=0   Cb=0 _
        B1Major=0   B1Minor=0   B2Major=0   B2Minor=0   HSSReduceT="Program Determined"   HSSWelding="Program Determined"   Omega0=0   Ry=0   Pnc=0   Pnt=0   Mn3=0   Mn2=0   Vn2=0   Vn3=0   CheckDefl="Program Determined" _
        DeflType="Program Determined"   DLRat=0   SDLAndLLRat=0   LLRat=0   TotalRat=0   NetRat=0   DLAbs=0   SDLAndLLAbs=0   LLAbs=0   TotalAbs=0   NetAbs=0   SpecCamber=0   DCLimit=0
# ... 120 like lines cut
 
TABLE:  "PREFERENCES - ALUMINUM DESIGN - AA-ASD 2000"
   THDesign=Envelopes   FrameType="Moment Frame"   SRatioLimit=1   MaxIter=1   LatFact=1.33333333333333   UseLatFact=No   Bridge=No
 
TABLE:  "PREFERENCES - COLD FORMED DESIGN - AISI-ASD96"
   THDesign=Envelopes   FrameType="Braced Frame"   SRatioLimit=1   MaxIter=1   OmegaBS=1.67   OmegaBUS=1.67   OmegaBLTB=1.67   OmegaVS=1.67   OmegaVNS=1.5   OmegaT=1.67   OmegaC=1.8
 
TABLE:  "PREFERENCES - CONCRETE DESIGN - ACI 318-14"
   THDesign=Envelopes   NumCurves=24   NumPoints=11   MinEccen=Yes   PatLLF=0.75   UFLimit=0.95   SeisCat=D   Rho=1   Sds=0.5   PhiT=0.9   PhiCTied=0.65   PhiCSpiral=0.75   PhiV=0.75   PhiVSeismic=0.6   PhiVJoint=0.85
 
TABLE:  "PREFERENCES - DIMENSIONAL"
   MergeTol=0.001   FineGrid=0.25   Nudge=0.25   SelectTol=3   SnapTol=12   SLineThick=1   PLineThick=4   MaxFont=8   MinFont=3   AutoZoom=10   ShrinkFact=70   TextFileLen=240
 
TABLE:  "PREFERENCES - STEEL DESIGN - AISC 360-16"
   THDesign=Envelopes   FrameType=SMF   PatLLF=0.75   SRatioLimit=0.95   MaxIter=1   SDC=D   SeisCode=Yes   SeisLoad=Yes   ImpFactor=1   SystemRho=1   SystemSds=0.5   SystemR=8   SystemCd=5.5   Omega0=3   Provision=LRFD _
        AMethod="Direct Analysis"   SOMethod="General 2nd Order"   SRMethod="Tau-b Fixed"   NLCoeff=0.002   PhiB=0.9   PhiC=0.9   PhiTY=0.9   PhiTF=0.75   PhiV=0.9   PhiVRolledI=1   PhiVT=0.9   PlugWeld=Yes   HSSWelding=ERW   HSSReduceT=No _
        CheckDefl=No   DLRat=120   SDLAndLLRat=120   LLRat=360   TotalRat=240   NetRat=240
 
TABLE:  "PROGRAM CONTROL"
   ProgramName=SAP2000   Version=22.0.0   CurrUnits="KN, m, C"   SteelCode="AISC 360-16"   ConcCode="ACI 318-14"   AlumCode="AA-ASD 2000"   ColdCode=AISI-ASD96   RegenHinge=Yes
 
TABLE:  "PROJECT INFORMATION"
   Item="Company Name"   Data="Computers and Structures, Inc."
   Item="Client Name"
   Item="Project Name"
   Item="Project Number"
   Item="Model Name"
   Item="Model Description"
   Item="Revision Number"
   Item="Frame Type"
   Item=Engineer
   Item=Checker
   Item=Supervisor
   Item="Issue Code"
   Item="Design Code"
 
TABLE:  "REBAR SIZES"
   RebarID=#2   Area=3.2258E-05   Diameter=0.00635
   RebarID=#3   Area=7.09675996154547E-05   Diameter=0.009525
   RebarID=#4   Area=0.000129032001922727   Diameter=0.0127
   RebarID=#5   Area=0.000199999601538181   Diameter=0.015875
   RebarID=#6   Area=0.000283870398461819   Diameter=0.01905
   RebarID=#7   Area=0.000387096015381813   Diameter=0.022225
   RebarID=#8   Area=0.000509676413843632   Diameter=0.0254
   RebarID=#9   Area=0.00064516   Diameter=0.0286512005329132
   RebarID=#10   Area=0.00081935318769455   Diameter=0.0322579995155334
   RebarID=#11   Area=0.00100644956308365   Diameter=0.0358139991521835
   RebarID=#14   Area=0.00145161   Diameter=0.0430021989583969
   RebarID=#18   Area=0.00258064   Diameter=0.0573277992248535
   RebarID=10M   Area=0.000100000002655387   Diameter=0.011300000667572
   RebarID=15M   Area=0.000200000005310774   Diameter=0.0159999999403954
   RebarID=20M   Area=0.000300000017579794   Diameter=0.0194999997854233
   RebarID=25M   Area=0.000500000022890568   Diameter=0.0252000016093254
   RebarID=30M   Area=0.000700000008974075   Diameter=0.0299000008821487
   RebarID=35M   Area=0.00100000004578114   Diameter=0.0357000011444092
   RebarID=45M   Area=0.00150000010712624   Diameter=0.0437000003576279
   RebarID=55M   Area=0.00250000007599831   Diameter=0.0564000033855438
   RebarID=6d   Area=2.83000004149973E-05   Diameter=0.006000000166893
   RebarID=8d   Area=5.02999995571375E-05   Diameter=0.00799999997019768
   RebarID=10d   Area=7.85000013634562E-05   Diameter=0.00999999977350235
   RebarID=12d   Area=0.000113000009249449   Diameter=0.012000000333786
   RebarID=14d   Area=0.000154000010818839   Diameter=0.0140000008940697
   RebarID=16d   Area=0.000201000015431643   Diameter=0.0159999999403954
   RebarID=20d   Area=0.000314000005453825   Diameter=0.0199999995470047
   RebarID=25d   Area=0.000491000008711815   Diameter=0.0250000001907349
   RebarID=26d   Area=0.000531000029001236   Diameter=0.0259999997138977
   RebarID=28d   Area=0.000616000043275356   Diameter=0.0280000017881393
   RebarID=N12   Area=0.000113000009249449   Diameter=0.012000000333786
   RebarID=N16   Area=0.000201000015431643   Diameter=0.0159999999403954
   RebarID=N20   Area=0.000314000005453825   Diameter=0.0199999995470047
   RebarID=N24   Area=0.000452000036997795   Diameter=0.024000000667572
   RebarID=N28   Area=0.000616000043275356   Diameter=0.0280000017881393
   RebarID=N32   Area=0.00080400006172657   Diameter=0.0319999998807907
   RebarID=N36   Area=0.00102000001747131   Diameter=0.036000001001358
 
TABLE:  "SOLID PROPERTY DEFINITIONS"
   SolidProp=Solid1   Material=4000Psi   MatAngleA=0   MatAngleB=0   MatAngleC=0   InComp=Yes   Color=Red
 
END TABLE DATA
